BRI-00528-05
  -OEChem-11282313333D

 47 48  0     0  0  0  0  0  0999 V2000
   -1.4342    4.7838    6.3552 C   0  0  0  0  0  0  0  0  0  0  0  0
   -0.6065    3.6098    5.8429 C   0  0  0  0  0  0  0  0  0  0  0  0
    0.6461    3.3489    6.6677 C   0  0  0  0  0  0  0  0  0  0  0  0
   -0.1402    3.8922    4.4894 O   0  0  0  0  0  0  0  0  0  0  0  0
   -1.0271    3.6548    3.4826 C   0  0  0  0  0  0  0  0  0  0  0  0
   -2.1431    3.1759    3.6299 O   0  0  0  0  0  0  0  0  0  0  0  0
   -0.4913    4.0498    2.2868 N   0  0  0  0  0  0  0  0  0  0  0  0
   -1.1170    3.6781    1.0224 C   0  0  0  0  0  0  0  0  0  0  0  0
   -0.7507    2.2402    0.5736 C   0  0  0  0  0  0  0  0  0  0  0  0
   -0.7501    2.1103   -0.9611 C   0  0  0  0  0  0  0  0  0  0  0  0
   -1.7616    2.9820   -1.5557 N   0  0  0  0  0  0  0  0  0  0  0  0
   -1.6190    4.4249   -1.3242 C   0  0  0  0  0  0  0  0  0  0  0  0
   -0.7630    4.6850   -0.0755 C   0  0  0  0  0  0  0  0  0  0  0  0
   -2.7947    2.5625   -2.3364 C   0  0  0  0  0  0  0  0  0  0  0  0
   -3.6005    3.3180   -2.8722 O   0  0  0  0  0  0  0  0  0  0  0  0
   -2.8434    1.2010   -2.4401 O   0  0  0  0  0  0  0  0  0  0  0  0
   -3.8433    0.6758   -3.3561 C   0  0  0  0  0  0  0  0  0  0  0  0
   -3.3138    0.5900   -4.7660 C   0  0  0  0  0  0  0  0  0  0  0  0
   -3.4486    1.6733   -5.6477 C   0  0  0  0  0  0  0  0  0  0  0  0
   -2.9372    1.5937   -6.9460 C   0  0  0  0  0  0  0  0  0  0  0  0
   -2.2866    0.4321   -7.3771 C   0  0  0  0  0  0  0  0  0  0  0  0
   -2.1487   -0.6520   -6.5037 C   0  0  0  0  0  0  0  0  0  0  0  0
   -2.6606   -0.5703   -5.2054 C   0  0  0  0  0  0  0  0  0  0  0  0
   -1.7739    4.5851    7.3774 H   0  0  0  0  0  0  0  0  0  0  0  0
   -2.3143    4.9368    5.7263 H   0  0  0  0  0  0  0  0  0  0  0  0
   -0.8353    5.7007    6.3623 H   0  0  0  0  0  0  0  0  0  0  0  0
   -1.2287    2.7127    5.7956 H   0  0  0  0  0  0  0  0  0  0  0  0
    1.2907    4.2338    6.6863 H   0  0  0  0  0  0  0  0  0  0  0  0
    0.3700    3.1030    7.6979 H   0  0  0  0  0  0  0  0  0  0  0  0
    1.2168    2.5125    6.2535 H   0  0  0  0  0  0  0  0  0  0  0  0
    0.4998    4.2595    2.2913 H   0  0  0  0  0  0  0  0  0  0  0  0
   -2.1938    3.7259    1.1987 H   0  0  0  0  0  0  0  0  0  0  0  0
   -1.4564    1.5360    1.0225 H   0  0  0  0  0  0  0  0  0  0  0  0
    0.2466    1.9843    0.9507 H   0  0  0  0  0  0  0  0  0  0  0  0
    0.2315    2.3934   -1.3638 H   0  0  0  0  0  0  0  0  0  0  0  0
   -0.9407    1.0863   -1.2718 H   0  0  0  0  0  0  0  0  0  0  0  0
   -2.6189    4.8434   -1.1895 H   0  0  0  0  0  0  0  0  0  0  0  0
   -1.1809    4.9133   -2.2040 H   0  0  0  0  0  0  0  0  0  0  0  0
   -0.9459    5.7049    0.2745 H   0  0  0  0  0  0  0  0  0  0  0  0
    0.3062    4.6153   -0.3154 H   0  0  0  0  0  0  0  0  0  0  0  0
   -4.7349    1.3011   -3.2990 H   0  0  0  0  0  0  0  0  0  0  0  0
   -4.0660   -0.3167   -2.9602 H   0  0  0  0  0  0  0  0  0  0  0  0
   -3.9412    2.5775   -5.3026 H   0  0  0  0  0  0  0  0  0  0  0  0
   -3.0473    2.4375   -7.6226 H   0  0  0  0  0  0  0  0  0  0  0  0
   -1.8919    0.3708   -8.3883 H   0  0  0  0  0  0  0  0  0  0  0  0
   -1.6474   -1.5582   -6.8342 H   0  0  0  0  0  0  0  0  0  0  0  0
   -2.5539   -1.4149   -4.5276 H   0  0  0  0  0  0  0  0  0  0  0  0
  1  2  1  0  0  0  0
  1 24  1  0  0  0  0
  1 25  1  0  0  0  0
  1 26  1  0  0  0  0
  2  3  1  0  0  0  0
  2  4  1  0  0  0  0
  2 27  1  0  0  0  0
  3 28  1  0  0  0  0
  3 29  1  0  0  0  0
  3 30  1  0  0  0  0
  4  5  1  0  0  0  0
  5  6  2  0  0  0  0
  5  7  1  0  0  0  0
  7  8  1  0  0  0  0
  7 31  1  0  0  0  0
  8  9  1  0  0  0  0
  8 13  1  0  0  0  0
  8 32  1  0  0  0  0
  9 10  1  0  0  0  0
  9 33  1  0  0  0  0
  9 34  1  0  0  0  0
 10 11  1  0  0  0  0
 10 35  1  0  0  0  0
 10 36  1  0  0  0  0
 11 12  1  0  0  0  0
 11 14  1  0  0  0  0
 12 13  1  0  0  0  0
 12 37  1  0  0  0  0
 12 38  1  0  0  0  0
 13 39  1  0  0  0  0
 13 40  1  0  0  0  0
 14 15  2  0  0  0  0
 14 16  1  0  0  0  0
 16 17  1  0  0  0  0
 17 18  1  0  0  0  0
 17 41  1  0  0  0  0
 17 42  1  0  0  0  0
 18 19  1  0  0  0  0
 18 23  2  0  0  0  0
 19 20  2  0  0  0  0
 19 43  1  0  0  0  0
 20 21  1  0  0  0  0
 20 44  1  0  0  0  0
 21 22  2  0  0  0  0
 21 45  1  0  0  0  0
 22 23  1  0  0  0  0
 22 46  1  0  0  0  0
 23 47  1  0  0  0  0
M  END
> <SMILES QCArchive>
[H]c1c(c(c(c(c1[H])[H])C([H])([H])OC(=O)N2C(C(C(C(C2([H])[H])([H])[H])([H])N([H])C(=O)OC([H])(C([H])([H])[H])C([H])([H])[H])([H])[H])([H])[H])[H])[H]

> <Energy QCArchive>
-673275.3098882773

> <Record QCArchive>
36954915

> <Compound Name>
BRI-00528-5

> <final_energy>
-673275.3098882773

$$$$
