BRI-01356-01
  -OEChem-11282313333D

 43 44  0     0  0  0  0  0  0999 V2000
   -3.2468    4.0543    0.2057 N   0  0  0  0  0  0  0  0  0  0  0  0
   -2.7303    2.8122    0.5169 C   0  0  0  0  0  0  0  0  0  0  0  0
   -3.4382    1.9227    0.9864 O   0  0  0  0  0  0  0  0  0  0  0  0
   -1.2627    2.6193    0.2865 C   0  0  0  0  0  0  0  0  0  0  0  0
   -0.3597    3.6732    0.0881 C   0  0  0  0  0  0  0  0  0  0  0  0
    1.0002    3.4413   -0.1213 C   0  0  0  0  0  0  0  0  0  0  0  0
    1.4776    2.1202   -0.1372 C   0  0  0  0  0  0  0  0  0  0  0  0
    2.8331    1.7904   -0.3440 N   0  0  0  0  0  0  0  0  0  0  0  0
    3.8983    2.6169   -0.6363 C   0  0  0  0  0  0  0  0  0  0  0  0
    3.8193    3.8366   -0.7287 O   0  0  0  0  0  0  0  0  0  0  0  0
    5.2147    1.8394   -0.8621 C   0  0  0  0  0  0  0  0  0  0  0  0
    6.4186    2.6273   -0.9691 N   0  0  0  0  0  0  0  0  0  0  0  0
    6.5088    3.5047   -2.1493 C   0  0  0  0  0  0  0  0  0  0  0  0
    7.9921    3.8339   -2.4270 C   0  0  0  0  0  0  0  0  0  0  0  0
    8.8294    3.7851   -1.1339 C   0  0  0  0  0  0  0  0  0  0  0  0
    7.9738    4.2720    0.0442 C   0  0  0  0  0  0  0  0  0  0  0  0
    6.7822    3.3244    0.2824 C   0  0  0  0  0  0  0  0  0  0  0  0
    9.3166    2.4104   -0.9233 N   0  0  0  0  0  0  0  0  0  0  0  0
   10.3142    2.1860   -0.0000 C   0  0  0  0  0  0  0  0  0  0  0  0
   10.5693    0.8550    0.2378 O   0  0  0  0  0  0  0  0  0  0  0  0
   10.9626    3.0472    0.5601 O   0  0  0  0  0  0  0  0  0  0  0  0
    0.5792    1.0575    0.0735 C   0  0  0  0  0  0  0  0  0  0  0  0
   -0.7702    1.3056    0.2881 C   0  0  0  0  0  0  0  0  0  0  0  0
   -4.2585    4.1082    0.2302 H   0  0  0  0  0  0  0  0  0  0  0  0
   -2.7901    4.6267   -0.4917 H   0  0  0  0  0  0  0  0  0  0  0  0
   -0.6993    4.7045    0.1309 H   0  0  0  0  0  0  0  0  0  0  0  0
    1.6883    4.2625   -0.2641 H   0  0  0  0  0  0  0  0  0  0  0  0
    3.0412    0.8000   -0.2942 H   0  0  0  0  0  0  0  0  0  0  0  0
    5.3388    1.1195   -0.0410 H   0  0  0  0  0  0  0  0  0  0  0  0
    5.0930    1.2480   -1.7798 H   0  0  0  0  0  0  0  0  0  0  0  0
    6.0712    2.9778   -3.0029 H   0  0  0  0  0  0  0  0  0  0  0  0
    5.9208    4.4200   -2.0089 H   0  0  0  0  0  0  0  0  0  0  0  0
    8.4214    3.1345   -3.1510 H   0  0  0  0  0  0  0  0  0  0  0  0
    8.0626    4.8349   -2.8646 H   0  0  0  0  0  0  0  0  0  0  0  0
    9.7156    4.4139   -1.2315 H   0  0  0  0  0  0  0  0  0  0  0  0
    8.5832    4.3480    0.9475 H   0  0  0  0  0  0  0  0  0  0  0  0
    7.6132    5.2800   -0.1894 H   0  0  0  0  0  0  0  0  0  0  0  0
    5.9359    3.8922    0.6916 H   0  0  0  0  0  0  0  0  0  0  0  0
    7.0520    2.5567    1.0183 H   0  0  0  0  0  0  0  0  0  0  0  0
    8.5627    1.7291   -0.9775 H   0  0  0  0  0  0  0  0  0  0  0  0
   10.1476    0.3121   -0.4491 H   0  0  0  0  0  0  0  0  0  0  0  0
    0.9447    0.0320    0.0701 H   0  0  0  0  0  0  0  0  0  0  0  0
   -1.4660    0.4910    0.4615 H   0  0  0  0  0  0  0  0  0  0  0  0
  1  2  1  0  0  0  0
  1 24  1  0  0  0  0
  1 25  1  0  0  0  0
  2  3  2  0  0  0  0
  2  4  1  0  0  0  0
  4  5  1  0  0  0  0
  4 23  2  0  0  0  0
  5  6  2  0  0  0  0
  5 26  1  0  0  0  0
  6  7  1  0  0  0  0
  6 27  1  0  0  0  0
  7  8  1  0  0  0  0
  7 22  2  0  0  0  0
  8  9  1  0  0  0  0
  8 28  1  0  0  0  0
  9 10  2  0  0  0  0
  9 11  1  0  0  0  0
 11 12  1  0  0  0  0
 11 29  1  0  0  0  0
 11 30  1  0  0  0  0
 12 13  1  0  0  0  0
 12 17  1  0  0  0  0
 13 14  1  0  0  0  0
 13 31  1  0  0  0  0
 13 32  1  0  0  0  0
 14 15  1  0  0  0  0
 14 33  1  0  0  0  0
 14 34  1  0  0  0  0
 15 16  1  0  0  0  0
 15 18  1  0  0  0  0
 15 35  1  0  0  0  0
 16 17  1  0  0  0  0
 16 36  1  0  0  0  0
 16 37  1  0  0  0  0
 17 38  1  0  0  0  0
 17 39  1  0  0  0  0
 18 19  1  0  0  0  0
 18 40  1  0  0  0  0
 19 20  1  0  0  0  0
 19 21  2  0  0  0  0
 20 41  1  0  0  0  0
 22 23  1  0  0  0  0
 22 42  1  0  0  0  0
 23 43  1  0  0  0  0
M  END
> <SMILES QCArchive>
[H]c1c(c(c(c(c1C(=O)N([H])[H])[H])[H])N([H])C(=O)C([H])([H])N2C(C(C(C(C2([H])[H])([H])[H])([H])N([H])C(=O)O[H])([H])[H])([H])[H])[H]

> <Energy QCArchive>
-692650.740987795

> <Record QCArchive>
36954829

> <Compound Name>
BRI-01356-1

> <final_energy>
-692650.740987795

$$$$
