BRI-00174-03
  -OEChem-11282313333D

 41 44  0     0  0  0  0  0  0999 V2000
    3.2605    2.0813   -2.4832 C   0  0  0  0  0  0  0  0  0  0  0  0
    2.5519    1.4467   -1.3667 N   0  0  0  0  0  0  0  0  0  0  0  0
    2.3619    2.1755   -0.1652 C   0  0  0  0  0  0  0  0  0  0  0  0
    3.3798    3.0296    0.2961 C   0  0  0  0  0  0  0  0  0  0  0  0
    3.2180    3.7878    1.4496 C   0  0  0  0  0  0  0  0  0  0  0  0
    2.0340    3.7036    2.2017 C   0  0  0  0  0  0  0  0  0  0  0  0
    1.0307    2.8469    1.7527 C   0  0  0  0  0  0  0  0  0  0  0  0
    1.1685    2.0912    0.5772 C   0  0  0  0  0  0  0  0  0  0  0  0
    0.0640    1.2916    0.1561 N   0  0  0  0  0  0  0  0  0  0  0  0
   -1.2372    1.9027    0.1853 C   0  0  0  0  0  0  0  0  0  0  0  0
   -1.4107    3.1330   -0.4598 C   0  0  0  0  0  0  0  0  0  0  0  0
   -2.6517    3.7710   -0.4235 C   0  0  0  0  0  0  0  0  0  0  0  0
   -3.7267    3.1782    0.2476 C   0  0  0  0  0  0  0  0  0  0  0  0
   -3.5497    1.9449    0.8830 C   0  0  0  0  0  0  0  0  0  0  0  0
   -2.3077    1.3050    0.8584 C   0  0  0  0  0  0  0  0  0  0  0  0
    0.1995   -0.0480   -0.1982 C   0  0  0  0  0  0  0  0  0  0  0  0
   -0.7531   -0.7609   -0.4769 O   0  0  0  0  0  0  0  0  0  0  0  0
    1.6331   -0.5528   -0.2642 C   0  0  0  0  0  0  0  0  0  0  0  0
    2.3446    0.0802   -1.4518 C   0  0  0  0  0  0  0  0  0  0  0  0
    2.6806   -0.5660   -2.4370 O   0  0  0  0  0  0  0  0  0  0  0  0
    1.8560    4.5347    3.4348 C   0  0  0  0  0  0  0  0  0  0  0  0
    1.2307    3.9596    4.6848 C   0  0  0  0  0  0  0  0  0  0  0  0
    2.7104    4.2824    4.6619 C   0  0  0  0  0  0  0  0  0  0  0  0
    3.0320    3.1482   -2.4872 H   0  0  0  0  0  0  0  0  0  0  0  0
    2.9186    1.6244   -3.4117 H   0  0  0  0  0  0  0  0  0  0  0  0
    4.3448    1.9382   -2.4146 H   0  0  0  0  0  0  0  0  0  0  0  0
    4.3088    3.0899   -0.2621 H   0  0  0  0  0  0  0  0  0  0  0  0
    4.0212    4.4390    1.7849 H   0  0  0  0  0  0  0  0  0  0  0  0
    0.1002    2.7738    2.3067 H   0  0  0  0  0  0  0  0  0  0  0  0
   -0.5719    3.5861   -0.9803 H   0  0  0  0  0  0  0  0  0  0  0  0
   -2.7799    4.7262   -0.9258 H   0  0  0  0  0  0  0  0  0  0  0  0
   -4.6945    3.6718    0.2725 H   0  0  0  0  0  0  0  0  0  0  0  0
   -4.3808    1.4767    1.4035 H   0  0  0  0  0  0  0  0  0  0  0  0
   -2.1727    0.3455    1.3436 H   0  0  0  0  0  0  0  0  0  0  0  0
    1.6017   -1.6271   -0.4283 H   0  0  0  0  0  0  0  0  0  0  0  0
    2.1668   -0.3294    0.6653 H   0  0  0  0  0  0  0  0  0  0  0  0
    1.6293    5.5811    3.2366 H   0  0  0  0  0  0  0  0  0  0  0  0
    0.5716    4.5956    5.2680 H   0  0  0  0  0  0  0  0  0  0  0  0
    0.9504    2.9104    4.6726 H   0  0  0  0  0  0  0  0  0  0  0  0
    3.0627    5.1403    5.2270 H   0  0  0  0  0  0  0  0  0  0  0  0
    3.4035    3.4470    4.6231 H   0  0  0  0  0  0  0  0  0  0  0  0
  1  2  1  0  0  0  0
  1 24  1  0  0  0  0
  1 25  1  0  0  0  0
  1 26  1  0  0  0  0
  2  3  1  0  0  0  0
  2 19  1  0  0  0  0
  3  4  1  0  0  0  0
  3  8  2  0  0  0  0
  4  5  2  0  0  0  0
  4 27  1  0  0  0  0
  5  6  1  0  0  0  0
  5 28  1  0  0  0  0
  6  7  2  0  0  0  0
  6 21  1  0  0  0  0
  7  8  1  0  0  0  0
  7 29  1  0  0  0  0
  8  9  1  0  0  0  0
  9 10  1  0  0  0  0
  9 16  1  0  0  0  0
 10 11  1  0  0  0  0
 10 15  2  0  0  0  0
 11 12  2  0  0  0  0
 11 30  1  0  0  0  0
 12 13  1  0  0  0  0
 12 31  1  0  0  0  0
 13 14  2  0  0  0  0
 13 32  1  0  0  0  0
 14 15  1  0  0  0  0
 14 33  1  0  0  0  0
 15 34  1  0  0  0  0
 16 17  2  0  0  0  0
 16 18  1  0  0  0  0
 18 19  1  0  0  0  0
 18 35  1  0  0  0  0
 18 36  1  0  0  0  0
 19 20  2  0  0  0  0
 21 22  1  0  0  0  0
 21 23  1  0  0  0  0
 21 37  1  0  0  0  0
 22 23  1  0  0  0  0
 22 38  1  0  0  0  0
 22 39  1  0  0  0  0
 23 40  1  0  0  0  0
 23 41  1  0  0  0  0
M  END
> <SMILES QCArchive>
[H]c1c(c(c(c(c1[H])[H])N2c3c(c(c(c(c3N(C(=O)C(C2=O)([H])[H])C([H])([H])[H])[H])[H])C4(C(C4([H])[H])([H])[H])[H])[H])[H])[H]

> <Energy QCArchive>
-624370.2627636016

> <Record QCArchive>
36954871

> <Compound Name>
BRI-00174-3

> <final_energy>
-624370.2627636016

$$$$
