BRI-00174-01
  -OEChem-11282313333D

 41 44  0     0  0  0  0  0  0999 V2000
    3.3226   -0.4834   -0.2728 C   0  0  0  0  0  0  0  0  0  0  0  0
    2.5600    0.6917   -0.7069 N   0  0  0  0  0  0  0  0  0  0  0  0
    2.3068    1.7332    0.2225 C   0  0  0  0  0  0  0  0  0  0  0  0
    3.2961    2.0860    1.1571 C   0  0  0  0  0  0  0  0  0  0  0  0
    3.0774    3.0720    2.1108 C   0  0  0  0  0  0  0  0  0  0  0  0
    1.8574    3.7722    2.1533 C   0  0  0  0  0  0  0  0  0  0  0  0
    0.8831    3.4334    1.2131 C   0  0  0  0  0  0  0  0  0  0  0  0
    1.0783    2.4190    0.2628 C   0  0  0  0  0  0  0  0  0  0  0  0
   -0.0037    2.0942   -0.6083 N   0  0  0  0  0  0  0  0  0  0  0  0
   -1.3078    1.9631   -0.0174 C   0  0  0  0  0  0  0  0  0  0  0  0
   -1.4609    1.1135    1.0845 C   0  0  0  0  0  0  0  0  0  0  0  0
   -2.7064    0.9909    1.7030 C   0  0  0  0  0  0  0  0  0  0  0  0
   -3.8056    1.7073    1.2169 C   0  0  0  0  0  0  0  0  0  0  0  0
   -3.6485    2.5479    0.1102 C   0  0  0  0  0  0  0  0  0  0  0  0
   -2.4026    2.6824   -0.5078 C   0  0  0  0  0  0  0  0  0  0  0  0
    0.1516    1.9741   -1.9869 C   0  0  0  0  0  0  0  0  0  0  0  0
   -0.7844    1.7589   -2.7428 O   0  0  0  0  0  0  0  0  0  0  0  0
    1.5846    2.0830   -2.4855 C   0  0  0  0  0  0  0  0  0  0  0  0
    2.3661    0.8449   -2.0692 C   0  0  0  0  0  0  0  0  0  0  0  0
    2.7633    0.0155   -2.8789 O   0  0  0  0  0  0  0  0  0  0  0  0
    1.5800    4.8459    3.1466 C   0  0  0  0  0  0  0  0  0  0  0  0
    2.6759    5.7910    3.6154 C   0  0  0  0  0  0  0  0  0  0  0  0
    2.1193    4.7649    4.5667 C   0  0  0  0  0  0  0  0  0  0  0  0
    3.0864   -0.6925    0.7718 H   0  0  0  0  0  0  0  0  0  0  0  0
    3.0347   -1.3301   -0.8958 H   0  0  0  0  0  0  0  0  0  0  0  0
    4.4029   -0.3349   -0.3824 H   0  0  0  0  0  0  0  0  0  0  0  0
    4.2514    1.5712    1.1296 H   0  0  0  0  0  0  0  0  0  0  0  0
    3.8702    3.3019    2.8175 H   0  0  0  0  0  0  0  0  0  0  0  0
   -0.0743    3.9461    1.2224 H   0  0  0  0  0  0  0  0  0  0  0  0
   -0.6032    0.5598    1.4555 H   0  0  0  0  0  0  0  0  0  0  0  0
   -2.8190    0.3305    2.5587 H   0  0  0  0  0  0  0  0  0  0  0  0
   -4.7766    1.6088    1.6948 H   0  0  0  0  0  0  0  0  0  0  0  0
   -4.4983    3.1050   -0.2753 H   0  0  0  0  0  0  0  0  0  0  0  0
   -2.2823    3.3274   -1.3702 H   0  0  0  0  0  0  0  0  0  0  0  0
    1.5591    2.1109   -3.5721 H   0  0  0  0  0  0  0  0  0  0  0  0
    2.0639    2.9871   -2.0965 H   0  0  0  0  0  0  0  0  0  0  0  0
    0.5932    5.2897    3.0498 H   0  0  0  0  0  0  0  0  0  0  0  0
    2.4105    6.8335    3.7639 H   0  0  0  0  0  0  0  0  0  0  0  0
    3.6724    5.6331    3.2135 H   0  0  0  0  0  0  0  0  0  0  0  0
    1.4702    5.1009    5.3698 H   0  0  0  0  0  0  0  0  0  0  0  0
    2.7354    3.9058    4.8155 H   0  0  0  0  0  0  0  0  0  0  0  0
  1  2  1  0  0  0  0
  1 24  1  0  0  0  0
  1 25  1  0  0  0  0
  1 26  1  0  0  0  0
  2  3  1  0  0  0  0
  2 19  1  0  0  0  0
  3  4  1  0  0  0  0
  3  8  2  0  0  0  0
  4  5  2  0  0  0  0
  4 27  1  0  0  0  0
  5  6  1  0  0  0  0
  5 28  1  0  0  0  0
  6  7  2  0  0  0  0
  6 21  1  0  0  0  0
  7  8  1  0  0  0  0
  7 29  1  0  0  0  0
  8  9  1  0  0  0  0
  9 10  1  0  0  0  0
  9 16  1  0  0  0  0
 10 11  1  0  0  0  0
 10 15  2  0  0  0  0
 11 12  2  0  0  0  0
 11 30  1  0  0  0  0
 12 13  1  0  0  0  0
 12 31  1  0  0  0  0
 13 14  2  0  0  0  0
 13 32  1  0  0  0  0
 14 15  1  0  0  0  0
 14 33  1  0  0  0  0
 15 34  1  0  0  0  0
 16 17  2  0  0  0  0
 16 18  1  0  0  0  0
 18 19  1  0  0  0  0
 18 35  1  0  0  0  0
 18 36  1  0  0  0  0
 19 20  2  0  0  0  0
 21 22  1  0  0  0  0
 21 23  1  0  0  0  0
 21 37  1  0  0  0  0
 22 23  1  0  0  0  0
 22 38  1  0  0  0  0
 22 39  1  0  0  0  0
 23 40  1  0  0  0  0
 23 41  1  0  0  0  0
M  END
> <SMILES QCArchive>
[H]c1c(c(c(c(c1[H])[H])N2c3c(c(c(c(c3N(C(=O)C(C2=O)([H])[H])C([H])([H])[H])[H])[H])C4(C(C4([H])[H])([H])[H])[H])[H])[H])[H]

> <Energy QCArchive>
-624371.0049335861

> <Record QCArchive>
36954869

> <Compound Name>
BRI-00174-1

> <final_energy>
-624371.0049335861

$$$$
