BRI-00386-03
  -OEChem-11282313333D

 40 42  0     1  0  0  0  0  0999 V2000
    2.0167   -0.2333   -4.7135 C   0  0  0  0  0  0  0  0  0  0  0  0
    1.2112   -0.8212   -3.6707 O   0  0  0  0  0  0  0  0  0  0  0  0
    1.9386   -1.2263   -2.5722 C   0  0  0  0  0  0  0  0  0  0  0  0
    2.1968   -2.5759   -2.3841 C   0  0  0  0  0  0  0  0  0  0  0  0
    2.9209   -3.0620   -1.3586 N   0  0  0  0  0  0  0  0  0  0  0  0
    3.4124   -2.1332   -0.5396 C   0  0  0  0  0  0  0  0  0  0  0  0
    3.2041   -0.8148   -0.5903 N   0  0  0  0  0  0  0  0  0  0  0  0
    2.4354   -0.3270   -1.5827 C   0  0  0  0  0  0  0  0  0  0  0  0
    2.2324    1.0365   -1.6264 N   0  0  2  0  0  0  0  0  0  0  0  0
    2.8878    1.8683   -0.6092 C   0  0  0  0  0  0  0  0  0  0  0  0
    2.0851    1.8799    0.6939 C   0  0  0  0  0  0  0  0  0  0  0  0
    0.6101    2.1191    0.4419 C   0  0  0  0  0  0  0  0  0  0  0  0
   -0.2407    2.4727    1.4995 C   0  0  0  0  0  0  0  0  0  0  0  0
   -1.6043    2.6827    1.2993 C   0  0  0  0  0  0  0  0  0  0  0  0
   -2.1136    2.5322    0.0115 C   0  0  0  0  0  0  0  0  0  0  0  0
   -3.5040    2.6700   -0.2020 O   0  0  0  0  0  0  0  0  0  0  0  0
   -3.9533    3.9064   -0.5224 C   0  0  0  0  0  0  0  0  0  0  0  0
   -3.6963    4.8242    0.4404 F   0  0  0  0  0  0  0  0  0  0  0  0
   -3.4069    4.3831   -1.6678 F   0  0  0  0  0  0  0  0  0  0  0  0
   -5.2793    3.8322   -0.6893 F   0  0  0  0  0  0  0  0  0  0  0  0
   -1.3008    2.1735   -1.0559 C   0  0  0  0  0  0  0  0  0  0  0  0
    0.0678    1.9658   -0.8449 C   0  0  0  0  0  0  0  0  0  0  0  0
    0.9437    1.6037   -2.0352 C   0  0  0  0  0  0  0  0  0  0  0  0
    1.6386   -3.5959   -3.3469 C   0  0  0  0  0  0  0  0  0  0  0  0
    2.2145   -3.5065   -4.5735 O   0  0  0  0  0  0  0  0  0  0  0  0
    0.7939   -4.4139   -3.0628 O   0  0  0  0  0  0  0  0  0  0  0  0
    2.7184   -0.9757   -5.1047 H   0  0  0  0  0  0  0  0  0  0  0  0
    2.5610    0.6407   -4.3393 H   0  0  0  0  0  0  0  0  0  0  0  0
    1.3207    0.0706   -5.4969 H   0  0  0  0  0  0  0  0  0  0  0  0
    4.0441   -2.4867    0.2732 H   0  0  0  0  0  0  0  0  0  0  0  0
    3.8981    1.4993   -0.4392 H   0  0  0  0  0  0  0  0  0  0  0  0
    2.9513    2.8797   -1.0268 H   0  0  0  0  0  0  0  0  0  0  0  0
    2.2218    0.9164    1.1964 H   0  0  0  0  0  0  0  0  0  0  0  0
    2.4811    2.6513    1.3641 H   0  0  0  0  0  0  0  0  0  0  0  0
    0.1742    2.5865    2.4985 H   0  0  0  0  0  0  0  0  0  0  0  0
   -2.2645    2.9539    2.1168 H   0  0  0  0  0  0  0  0  0  0  0  0
   -1.7394    2.0496   -2.0425 H   0  0  0  0  0  0  0  0  0  0  0  0
    0.4209    0.9036   -2.6819 H   0  0  0  0  0  0  0  0  0  0  0  0
    1.1414    2.5083   -2.6257 H   0  0  0  0  0  0  0  0  0  0  0  0
    1.7991   -4.2017   -5.1216 H   0  0  0  0  0  0  0  0  0  0  0  0
  1  2  1  0  0  0  0
  1 27  1  0  0  0  0
  1 28  1  0  0  0  0
  1 29  1  0  0  0  0
  2  3  1  0  0  0  0
  3  4  1  0  0  0  0
  3  8  2  0  0  0  0
  4  5  2  0  0  0  0
  4 24  1  0  0  0  0
  5  6  1  0  0  0  0
  6  7  2  0  0  0  0
  6 30  1  0  0  0  0
  7  8  1  0  0  0  0
  8  9  1  0  0  0  0
  9 10  1  0  0  0  0
  9 23  1  0  0  0  0
 10 11  1  0  0  0  0
 10 31  1  0  0  0  0
 10 32  1  0  0  0  0
 11 12  1  0  0  0  0
 11 33  1  0  0  0  0
 11 34  1  0  0  0  0
 12 13  1  0  0  0  0
 12 22  2  0  0  0  0
 13 14  2  0  0  0  0
 13 35  1  0  0  0  0
 14 15  1  0  0  0  0
 14 36  1  0  0  0  0
 15 16  1  0  0  0  0
 15 21  2  0  0  0  0
 16 17  1  0  0  0  0
 17 18  1  0  0  0  0
 17 19  1  0  0  0  0
 17 20  1  0  0  0  0
 21 22  1  0  0  0  0
 21 37  1  0  0  0  0
 22 23  1  0  0  0  0
 23 38  1  0  0  0  0
 23 39  1  0  0  0  0
 24 25  1  0  0  0  0
 24 26  2  0  0  0  0
 25 40  1  0  0  0  0
M  END
> <SMILES QCArchive>
[H]c1c(c(c(c2c1C(C(N(C2([H])[H])c3c(c(nc(n3)[H])C(=O)O[H])OC([H])([H])[H])([H])[H])([H])[H])[H])OC(F)(F)F)[H]

> <Energy QCArchive>
-867907.2462231375

> <Record QCArchive>
36954897

> <Compound Name>
BRI-00386-3

> <final_energy>
-867907.2462231375

$$$$
