BRI-01081-03
  -OEChem-11282313333D

 39 42  0     0  0  0  0  0  0999 V2000
   -0.7845    6.3348    1.0741 O   0  0  0  0  0  0  0  0  0  0  0  0
    0.3355    5.7339    0.3573 S   0  0  0  0  0  0  0  0  0  0  0  0
    1.6893    5.7010    0.8989 O   0  0  0  0  0  0  0  0  0  0  0  0
    0.4274    6.5939   -1.1317 N   0  0  0  0  0  0  0  0  0  0  0  0
   -0.7683    6.9461   -1.7932 C   0  0  0  0  0  0  0  0  0  0  0  0
   -0.5753    6.9555   -3.1473 C   0  0  0  0  0  0  0  0  0  0  0  0
    0.8014    6.5374   -3.3824 C   0  0  0  0  0  0  0  0  0  0  0  0
    1.3971    6.2984   -2.1191 C   0  0  0  0  0  0  0  0  0  0  0  0
    2.7197    5.8724   -1.9817 C   0  0  0  0  0  0  0  0  0  0  0  0
    3.4481    5.6635   -3.1542 C   0  0  0  0  0  0  0  0  0  0  0  0
    2.8725    5.8797   -4.4213 C   0  0  0  0  0  0  0  0  0  0  0  0
    1.5556    6.3194   -4.5467 C   0  0  0  0  0  0  0  0  0  0  0  0
   -1.5726    7.3440   -4.1575 C   0  0  0  0  0  0  0  0  0  0  0  0
   -1.2108    8.1273   -5.2681 C   0  0  0  0  0  0  0  0  0  0  0  0
   -2.1642    8.5025   -6.2172 C   0  0  0  0  0  0  0  0  0  0  0  0
   -3.4974    8.1038   -6.0741 C   0  0  0  0  0  0  0  0  0  0  0  0
   -3.8694    7.3261   -4.9719 C   0  0  0  0  0  0  0  0  0  0  0  0
   -2.9154    6.9464   -4.0262 C   0  0  0  0  0  0  0  0  0  0  0  0
   -0.1223    4.0891   -0.1736 C   0  0  0  0  0  0  0  0  0  0  0  0
    0.8829    3.1620   -0.4595 C   0  0  0  0  0  0  0  0  0  0  0  0
    0.5146    1.9038   -0.9414 C   0  0  0  0  0  0  0  0  0  0  0  0
   -0.8360    1.5909   -1.1293 C   0  0  0  0  0  0  0  0  0  0  0  0
   -1.8293    2.5309   -0.8309 C   0  0  0  0  0  0  0  0  0  0  0  0
   -1.4768    3.7931   -0.3495 C   0  0  0  0  0  0  0  0  0  0  0  0
   -1.6313    7.2268   -1.2065 H   0  0  0  0  0  0  0  0  0  0  0  0
    3.1628    5.7274   -1.0032 H   0  0  0  0  0  0  0  0  0  0  0  0
    4.4815    5.3350   -3.0841 H   0  0  0  0  0  0  0  0  0  0  0  0
    3.4672    5.7040   -5.3136 H   0  0  0  0  0  0  0  0  0  0  0  0
    1.1175    6.4769   -5.5274 H   0  0  0  0  0  0  0  0  0  0  0  0
   -0.1851    8.4696   -5.3704 H   0  0  0  0  0  0  0  0  0  0  0  0
   -1.8674    9.1144   -7.0653 H   0  0  0  0  0  0  0  0  0  0  0  0
   -4.2384    8.3951   -6.8139 H   0  0  0  0  0  0  0  0  0  0  0  0
   -4.9019    7.0065   -4.8552 H   0  0  0  0  0  0  0  0  0  0  0  0
   -3.2035    6.3189   -3.1865 H   0  0  0  0  0  0  0  0  0  0  0  0
    1.9237    3.4197   -0.2985 H   0  0  0  0  0  0  0  0  0  0  0  0
    1.2823    1.1693   -1.1674 H   0  0  0  0  0  0  0  0  0  0  0  0
   -1.1161    0.6103   -1.5046 H   0  0  0  0  0  0  0  0  0  0  0  0
   -2.8774    2.2804   -0.9684 H   0  0  0  0  0  0  0  0  0  0  0  0
   -2.2317    4.5309   -0.0975 H   0  0  0  0  0  0  0  0  0  0  0  0
  1  2  2  0  0  0  0
  2  3  2  0  0  0  0
  2  4  1  0  0  0  0
  2 19  1  0  0  0  0
  4  5  1  0  0  0  0
  4  8  1  0  0  0  0
  5  6  2  0  0  0  0
  5 25  1  0  0  0  0
  6  7  1  0  0  0  0
  6 13  1  0  0  0  0
  7  8  1  0  0  0  0
  7 12  2  0  0  0  0
  8  9  2  0  0  0  0
  9 10  1  0  0  0  0
  9 26  1  0  0  0  0
 10 11  2  0  0  0  0
 10 27  1  0  0  0  0
 11 12  1  0  0  0  0
 11 28  1  0  0  0  0
 12 29  1  0  0  0  0
 13 14  1  0  0  0  0
 13 18  2  0  0  0  0
 14 15  2  0  0  0  0
 14 30  1  0  0  0  0
 15 16  1  0  0  0  0
 15 31  1  0  0  0  0
 16 17  2  0  0  0  0
 16 32  1  0  0  0  0
 17 18  1  0  0  0  0
 17 33  1  0  0  0  0
 18 34  1  0  0  0  0
 19 20  1  0  0  0  0
 19 24  2  0  0  0  0
 20 21  2  0  0  0  0
 20 35  1  0  0  0  0
 21 22  1  0  0  0  0
 21 36  1  0  0  0  0
 22 23  2  0  0  0  0
 22 37  1  0  0  0  0
 23 24  1  0  0  0  0
 23 38  1  0  0  0  0
 24 39  1  0  0  0  0
M  END
> <SMILES QCArchive>
[H]c1c(c(c(c(c1[H])[H])C2=C(N(c3c2c(c(c(c3[H])[H])[H])[H])S(=O)(=O)c4c(c(c(c(c4[H])[H])[H])[H])[H])[H])[H])[H]

> <Energy QCArchive>
-862602.9643431153

> <Record QCArchive>
36954867

> <Compound Name>
BRI-01081-3

> <final_energy>
-862602.9643431153

$$$$
