BRI-00538-07
  -OEChem-11282313333D

 40 41  0     1  0  0  0  0  0999 V2000
   -0.4685    7.2316    1.4673 C   0  0  0  0  0  0  0  0  0  0  0  0
   -0.8053    7.5330    0.0819 N   0  0  2  0  0  0  0  0  0  0  0  0
   -1.4312    8.8429   -0.0670 C   0  0  0  0  0  0  0  0  0  0  0  0
   -1.5615    9.3037   -1.5345 C   0  0  0  0  0  0  0  0  0  0  0  0
   -0.3422    9.0052   -2.3804 C   0  0  0  0  0  0  0  0  0  0  0  0
   -0.4432    8.2316   -3.5401 C   0  0  0  0  0  0  0  0  0  0  0  0
    0.6879    7.8995   -4.2967 C   0  0  0  0  0  0  0  0  0  0  0  0
    1.9464    8.3394   -3.8991 C   0  0  0  0  0  0  0  0  0  0  0  0
    3.0572    8.0036   -4.6266 O   0  0  0  0  0  0  0  0  0  0  0  0
    2.0573    9.1264   -2.7378 C   0  0  0  0  0  0  0  0  0  0  0  0
    3.3452    9.5199   -2.4174 O   0  0  0  0  0  0  0  0  0  0  0  0
    0.9309    9.4551   -1.9919 C   0  0  0  0  0  0  0  0  0  0  0  0
   -1.5303    6.4362   -0.5480 C   0  0  0  0  0  0  0  0  0  0  0  0
   -0.6142    5.2864   -0.9200 C   0  0  0  0  0  0  0  0  0  0  0  0
    0.6610    5.5522   -1.4442 C   0  0  0  0  0  0  0  0  0  0  0  0
    1.4943    4.5123   -1.8463 C   0  0  0  0  0  0  0  0  0  0  0  0
    1.0407    3.1965   -1.7158 C   0  0  0  0  0  0  0  0  0  0  0  0
   -0.2199    2.9017   -1.1948 C   0  0  0  0  0  0  0  0  0  0  0  0
   -1.0404    3.9574   -0.7967 C   0  0  0  0  0  0  0  0  0  0  0  0
    1.9151    2.0915   -2.1339 N   0  3  0  0  0  0  0  0  0  0  0  0
    3.0424    2.3746   -2.5559 O   0  5  0  0  0  0  0  0  0  0  0  0
    1.4752    0.9387   -2.0402 O   0  0  0  0  0  0  0  0  0  0  0  0
   -1.3572    7.1577    2.1225 H   0  0  0  0  0  0  0  0  0  0  0  0
    0.1873    8.0113    1.8680 H   0  0  0  0  0  0  0  0  0  0  0  0
    0.0700    6.2807    1.5176 H   0  0  0  0  0  0  0  0  0  0  0  0
   -0.7967    9.5544    0.4736 H   0  0  0  0  0  0  0  0  0  0  0  0
   -2.4286    8.8958    0.4113 H   0  0  0  0  0  0  0  0  0  0  0  0
   -1.7687   10.3812   -1.5186 H   0  0  0  0  0  0  0  0  0  0  0  0
   -2.4377    8.8431   -2.0010 H   0  0  0  0  0  0  0  0  0  0  0  0
   -1.4157    7.8652   -3.8597 H   0  0  0  0  0  0  0  0  0  0  0  0
    0.6081    7.2880   -5.1905 H   0  0  0  0  0  0  0  0  0  0  0  0
    3.8311    8.4050   -4.1944 H   0  0  0  0  0  0  0  0  0  0  0  0
    3.3344   10.0456   -1.6027 H   0  0  0  0  0  0  0  0  0  0  0  0
    1.0465   10.0474   -1.0848 H   0  0  0  0  0  0  0  0  0  0  0  0
   -2.3610    6.0658    0.0809 H   0  0  0  0  0  0  0  0  0  0  0  0
   -1.9843    6.8025   -1.4727 H   0  0  0  0  0  0  0  0  0  0  0  0
    0.9889    6.5821   -1.5270 H   0  0  0  0  0  0  0  0  0  0  0  0
    2.4774    4.7029   -2.2609 H   0  0  0  0  0  0  0  0  0  0  0  0
   -0.5345    1.8687   -1.1034 H   0  0  0  0  0  0  0  0  0  0  0  0
   -2.0223    3.7422   -0.3818 H   0  0  0  0  0  0  0  0  0  0  0  0
  1  2  1  0  0  0  0
  1 23  1  0  0  0  0
  1 24  1  0  0  0  0
  1 25  1  0  0  0  0
  2  3  1  0  0  0  0
  2 13  1  0  0  0  0
  3  4  1  0  0  0  0
  3 26  1  0  0  0  0
  3 27  1  0  0  0  0
  4  5  1  0  0  0  0
  4 28  1  0  0  0  0
  4 29  1  0  0  0  0
  5  6  1  0  0  0  0
  5 12  2  0  0  0  0
  6  7  2  0  0  0  0
  6 30  1  0  0  0  0
  7  8  1  0  0  0  0
  7 31  1  0  0  0  0
  8  9  1  0  0  0  0
  8 10  2  0  0  0  0
  9 32  1  0  0  0  0
 10 11  1  0  0  0  0
 10 12  1  0  0  0  0
 11 33  1  0  0  0  0
 12 34  1  0  0  0  0
 13 14  1  0  0  0  0
 13 35  1  0  0  0  0
 13 36  1  0  0  0  0
 14 15  1  0  0  0  0
 14 19  2  0  0  0  0
 15 16  2  0  0  0  0
 15 37  1  0  0  0  0
 16 17  1  0  0  0  0
 16 38  1  0  0  0  0
 17 18  2  0  0  0  0
 17 20  1  0  0  0  0
 18 19  1  0  0  0  0
 18 39  1  0  0  0  0
 19 40  1  0  0  0  0
 20 21  1  0  0  0  0
 20 22  2  0  0  0  0
M  CHG  2  20   1  21  -1
M  END
> <SMILES QCArchive>
[H]c1c(c(c(c(c1C([H])([H])N(C([H])([H])[H])C([H])([H])C([H])([H])c2c(c(c(c(c2[H])O[H])O[H])[H])[H])[H])[H])[N+](=O)[O-])[H]

> <Energy QCArchive>
-646983.5563914721

> <Record QCArchive>
36954884

> <Compound Name>
BRI-00538-7

> <final_energy>
-646983.5563914721

$$$$
