BRI-00538-06
  -OEChem-11282313333D

 40 41  0     1  0  0  0  0  0999 V2000
   -2.9117    5.5316   -2.0640 C   0  0  0  0  0  0  0  0  0  0  0  0
   -2.2553    6.4450   -1.1315 N   0  0  2  0  0  0  0  0  0  0  0  0
   -1.2748    7.2901   -1.8178 C   0  0  0  0  0  0  0  0  0  0  0  0
   -0.8160    8.5017   -0.9908 C   0  0  0  0  0  0  0  0  0  0  0  0
    0.1351    9.3763   -1.7758 C   0  0  0  0  0  0  0  0  0  0  0  0
   -0.2744   10.6011   -2.3130 C   0  0  0  0  0  0  0  0  0  0  0  0
    0.6004   11.3891   -3.0707 C   0  0  0  0  0  0  0  0  0  0  0  0
    1.9038   10.9595   -3.3065 C   0  0  0  0  0  0  0  0  0  0  0  0
    2.7607   11.7309   -4.0466 O   0  0  0  0  0  0  0  0  0  0  0  0
    2.3240    9.7283   -2.7728 C   0  0  0  0  0  0  0  0  0  0  0  0
    3.6347    9.3832   -3.0536 O   0  0  0  0  0  0  0  0  0  0  0  0
    1.4528    8.9491   -2.0179 C   0  0  0  0  0  0  0  0  0  0  0  0
   -1.7576    5.7758    0.0812 C   0  0  0  0  0  0  0  0  0  0  0  0
   -0.5754    4.8447   -0.1373 C   0  0  0  0  0  0  0  0  0  0  0  0
   -0.7699    3.5205   -0.5636 C   0  0  0  0  0  0  0  0  0  0  0  0
    0.3098    2.6848   -0.8445 C   0  0  0  0  0  0  0  0  0  0  0  0
    1.6030    3.1881   -0.6925 C   0  0  0  0  0  0  0  0  0  0  0  0
    1.8357    4.4929   -0.2545 C   0  0  0  0  0  0  0  0  0  0  0  0
    0.7408    5.3101    0.0188 C   0  0  0  0  0  0  0  0  0  0  0  0
    2.7512    2.3197   -0.9926 N   0  3  0  0  0  0  0  0  0  0  0  0
    3.8843    2.7998   -0.8680 O   0  5  0  0  0  0  0  0  0  0  0  0
    2.5191    1.1611   -1.3551 O   0  0  0  0  0  0  0  0  0  0  0  0
   -3.4315    6.1154   -2.8300 H   0  0  0  0  0  0  0  0  0  0  0  0
   -3.6599    4.9360   -1.5305 H   0  0  0  0  0  0  0  0  0  0  0  0
   -2.2212    4.8401   -2.5774 H   0  0  0  0  0  0  0  0  0  0  0  0
   -1.7552    7.6691   -2.7259 H   0  0  0  0  0  0  0  0  0  0  0  0
   -0.3934    6.7173   -2.1555 H   0  0  0  0  0  0  0  0  0  0  0  0
   -1.6996    9.0735   -0.6917 H   0  0  0  0  0  0  0  0  0  0  0  0
   -0.3289    8.1728   -0.0667 H   0  0  0  0  0  0  0  0  0  0  0  0
   -1.2888   10.9510   -2.1385 H   0  0  0  0  0  0  0  0  0  0  0  0
    0.2849   12.3422   -3.4853 H   0  0  0  0  0  0  0  0  0  0  0  0
    3.6107   11.2606   -4.1037 H   0  0  0  0  0  0  0  0  0  0  0  0
    3.8274    8.5026   -2.6961 H   0  0  0  0  0  0  0  0  0  0  0  0
    1.7991    7.9977   -1.6139 H   0  0  0  0  0  0  0  0  0  0  0  0
   -1.4887    6.5423    0.8128 H   0  0  0  0  0  0  0  0  0  0  0  0
   -2.5953    5.2142    0.5072 H   0  0  0  0  0  0  0  0  0  0  0  0
   -1.7799    3.1340   -0.6683 H   0  0  0  0  0  0  0  0  0  0  0  0
    0.1682    1.6614   -1.1720 H   0  0  0  0  0  0  0  0  0  0  0  0
    2.8542    4.8418   -0.1293 H   0  0  0  0  0  0  0  0  0  0  0  0
    0.9120    6.3232    0.3719 H   0  0  0  0  0  0  0  0  0  0  0  0
  1  2  1  0  0  0  0
  1 23  1  0  0  0  0
  1 24  1  0  0  0  0
  1 25  1  0  0  0  0
  2  3  1  0  0  0  0
  2 13  1  0  0  0  0
  3  4  1  0  0  0  0
  3 26  1  0  0  0  0
  3 27  1  0  0  0  0
  4  5  1  0  0  0  0
  4 28  1  0  0  0  0
  4 29  1  0  0  0  0
  5  6  1  0  0  0  0
  5 12  2  0  0  0  0
  6  7  2  0  0  0  0
  6 30  1  0  0  0  0
  7  8  1  0  0  0  0
  7 31  1  0  0  0  0
  8  9  1  0  0  0  0
  8 10  2  0  0  0  0
  9 32  1  0  0  0  0
 10 11  1  0  0  0  0
 10 12  1  0  0  0  0
 11 33  1  0  0  0  0
 12 34  1  0  0  0  0
 13 14  1  0  0  0  0
 13 35  1  0  0  0  0
 13 36  1  0  0  0  0
 14 15  1  0  0  0  0
 14 19  2  0  0  0  0
 15 16  2  0  0  0  0
 15 37  1  0  0  0  0
 16 17  1  0  0  0  0
 16 38  1  0  0  0  0
 17 18  2  0  0  0  0
 17 20  1  0  0  0  0
 18 19  1  0  0  0  0
 18 39  1  0  0  0  0
 19 40  1  0  0  0  0
 20 21  1  0  0  0  0
 20 22  2  0  0  0  0
M  CHG  2  20   1  21  -1
M  END
> <SMILES QCArchive>
[H]c1c(c(c(c(c1C([H])([H])N(C([H])([H])[H])C([H])([H])C([H])([H])c2c(c(c(c(c2[H])O[H])O[H])[H])[H])[H])[H])[N+](=O)[O-])[H]

> <Energy QCArchive>
-646981.4704075403

> <Record QCArchive>
36954883

> <Compound Name>
BRI-00538-6

> <final_energy>
-646981.4704075403

$$$$
