BRI-00505-02
  -OEChem-11282313333D

 34 36  0     0  0  0  0  0  0999 V2000
    2.5863    2.5812    2.3699 C   0  0  0  0  0  0  0  0  0  0  0  0
    2.1889    3.4508    1.2767 N   0  0  0  0  0  0  0  0  0  0  0  0
    2.2330    4.8158    1.2989 C   0  0  0  0  0  0  0  0  0  0  0  0
    1.8033    5.3503    0.1702 N   0  0  0  0  0  0  0  0  0  0  0  0
    1.4552    4.2949   -0.6425 C   0  0  0  0  0  0  0  0  0  0  0  0
    0.9176    4.5212   -2.0219 C   0  0  0  0  0  0  0  0  0  0  0  0
    1.6861    3.0915    0.0240 C   0  0  0  0  0  0  0  0  0  0  0  0
    1.4717    1.7311   -0.4246 C   0  0  0  0  0  0  0  0  0  0  0  0
    1.7752    0.5007    0.1396 C   0  0  0  0  0  0  0  0  0  0  0  0
    1.3222   -0.4210   -0.7630 N   0  0  0  0  0  0  0  0  0  0  0  0
    0.7677    0.2036   -1.8360 N   0  0  0  0  0  0  0  0  0  0  0  0
    0.8545    1.4841   -1.6383 N   0  0  0  0  0  0  0  0  0  0  0  0
    1.3675   -1.8353   -0.6998 C   0  0  0  0  0  0  0  0  0  0  0  0
    0.5671   -2.5894   -1.5716 C   0  0  0  0  0  0  0  0  0  0  0  0
    0.6026   -3.9799   -1.5002 C   0  0  0  0  0  0  0  0  0  0  0  0
    1.4287   -4.6282   -0.5766 C   0  0  0  0  0  0  0  0  0  0  0  0
    2.2338   -3.8701    0.2846 C   0  0  0  0  0  0  0  0  0  0  0  0
    2.1952   -2.4716    0.2249 C   0  0  0  0  0  0  0  0  0  0  0  0
    3.1409   -4.4764    1.3167 C   0  0  0  0  0  0  0  0  0  0  0  0
    3.5214   -5.7696    1.1224 O   0  0  0  0  0  0  0  0  0  0  0  0
    3.5356   -3.8686    2.2878 O   0  0  0  0  0  0  0  0  0  0  0  0
    3.4442    1.9617    2.0905 H   0  0  0  0  0  0  0  0  0  0  0  0
    2.8746    3.2016    3.2201 H   0  0  0  0  0  0  0  0  0  0  0  0
    1.7571    1.9379    2.6788 H   0  0  0  0  0  0  0  0  0  0  0  0
    2.5877    5.3614    2.1649 H   0  0  0  0  0  0  0  0  0  0  0  0
    1.4887    3.9671   -2.7721 H   0  0  0  0  0  0  0  0  0  0  0  0
   -0.1194    4.1820   -2.1079 H   0  0  0  0  0  0  0  0  0  0  0  0
    0.9631    5.5890   -2.2474 H   0  0  0  0  0  0  0  0  0  0  0  0
    2.2357    0.2137    1.0688 H   0  0  0  0  0  0  0  0  0  0  0  0
   -0.0709   -2.0788   -2.2830 H   0  0  0  0  0  0  0  0  0  0  0  0
   -0.0309   -4.5636   -2.1614 H   0  0  0  0  0  0  0  0  0  0  0  0
    1.3975   -5.7135   -0.5150 H   0  0  0  0  0  0  0  0  0  0  0  0
    2.8307   -1.9162    0.9048 H   0  0  0  0  0  0  0  0  0  0  0  0
    3.2531   -6.0723    0.2388 H   0  0  0  0  0  0  0  0  0  0  0  0
  1  2  1  0  0  0  0
  1 22  1  0  0  0  0
  1 23  1  0  0  0  0
  1 24  1  0  0  0  0
  2  3  1  0  0  0  0
  2  7  1  0  0  0  0
  3  4  2  0  0  0  0
  3 25  1  0  0  0  0
  4  5  1  0  0  0  0
  5  6  1  0  0  0  0
  5  7  2  0  0  0  0
  6 26  1  0  0  0  0
  6 27  1  0  0  0  0
  6 28  1  0  0  0  0
  7  8  1  0  0  0  0
  8  9  2  0  0  0  0
  8 12  1  0  0  0  0
  9 10  1  0  0  0  0
  9 29  1  0  0  0  0
 10 11  1  0  0  0  0
 10 13  1  0  0  0  0
 11 12  2  0  0  0  0
 13 14  1  0  0  0  0
 13 18  2  0  0  0  0
 14 15  2  0  0  0  0
 14 30  1  0  0  0  0
 15 16  1  0  0  0  0
 15 31  1  0  0  0  0
 16 17  2  0  0  0  0
 16 32  1  0  0  0  0
 17 18  1  0  0  0  0
 17 19  1  0  0  0  0
 18 33  1  0  0  0  0
 19 20  1  0  0  0  0
 19 21  2  0  0  0  0
 20 34  1  0  0  0  0
M  END
> <SMILES QCArchive>
[H]c1c(c(c(c(c1[H])N2C(=C(N=N2)C3=C(N=C(N3C([H])([H])[H])[H])C([H])([H])[H])[H])[H])C(=O)O[H])[H]

> <Energy QCArchive>
-605969.5272915242

> <Record QCArchive>
36954932

> <Compound Name>
BRI-00505-2

> <final_energy>
-605969.5272915242

$$$$
