BRI-00959-06
  -OEChem-11282313333D

 38 39  0     1  0  0  0  0  0999 V2000
    1.8274    4.1996    1.7044 O   0  5  0  0  0  0  0  0  0  0  0  0
    0.7254    4.7039    1.9506 N   0  3  0  0  0  0  0  0  0  0  0  0
    0.5637    5.7594    2.5738 O   0  0  0  0  0  0  0  0  0  0  0  0
   -0.4726    4.0017    1.4677 C   0  0  0  0  0  0  0  0  0  0  0  0
   -1.7322    4.5355    1.7436 C   0  0  0  0  0  0  0  0  0  0  0  0
   -2.8623    3.8615    1.2840 C   0  0  0  0  0  0  0  0  0  0  0  0
   -2.7399    2.6707    0.5583 C   0  0  0  0  0  0  0  0  0  0  0  0
   -3.9615    1.9559    0.0067 C   0  0  0  0  0  0  0  0  0  0  0  0
   -5.2115    2.2461    0.7185 N   0  0  1  0  0  0  0  0  0  0  0  0
   -6.2990    2.6868   -0.1668 C   0  0  0  0  0  0  0  0  0  0  0  0
   -7.4639    3.3023    0.5811 C   0  0  0  0  0  0  0  0  0  0  0  0
   -8.7807    3.0099    0.2083 C   0  0  0  0  0  0  0  0  0  0  0  0
   -9.8662    3.6030    0.8603 C   0  0  0  0  0  0  0  0  0  0  0  0
   -9.6239    4.4939    1.9059 C   0  0  0  0  0  0  0  0  0  0  0  0
  -10.9765    5.2389    2.7401 Cl  0  0  0  0  0  0  0  0  0  0  0  0
   -8.3185    4.7952    2.3041 C   0  0  0  0  0  0  0  0  0  0  0  0
   -7.2478    4.1987    1.6380 C   0  0  0  0  0  0  0  0  0  0  0  0
   -5.6300    1.2049    1.6416 C   0  0  0  0  0  0  0  0  0  0  0  0
   -4.8478    1.1989    2.9481 C   0  0  0  0  0  0  0  0  0  0  0  0
   -5.3791    0.2787    3.7919 F   0  0  0  0  0  0  0  0  0  0  0  0
   -4.8822    2.3950    3.5754 F   0  0  0  0  0  0  0  0  0  0  0  0
   -3.5428    0.8696    2.7746 F   0  0  0  0  0  0  0  0  0  0  0  0
   -1.4615    2.1560    0.2988 C   0  0  0  0  0  0  0  0  0  0  0  0
   -0.3197    2.8139    0.7493 C   0  0  0  0  0  0  0  0  0  0  0  0
   -1.8110    5.4558    2.3106 H   0  0  0  0  0  0  0  0  0  0  0  0
   -3.8526    4.2435    1.5044 H   0  0  0  0  0  0  0  0  0  0  0  0
   -4.0772    2.2584   -1.0408 H   0  0  0  0  0  0  0  0  0  0  0  0
   -3.7637    0.8751   -0.0165 H   0  0  0  0  0  0  0  0  0  0  0  0
   -5.8735    3.4411   -0.8373 H   0  0  0  0  0  0  0  0  0  0  0  0
   -6.6712    1.8683   -0.8080 H   0  0  0  0  0  0  0  0  0  0  0  0
   -8.9706    2.3080   -0.6007 H   0  0  0  0  0  0  0  0  0  0  0  0
  -10.8849    3.3711    0.5660 H   0  0  0  0  0  0  0  0  0  0  0  0
   -8.1457    5.4839    3.1251 H   0  0  0  0  0  0  0  0  0  0  0  0
   -6.2329    4.4147    1.9560 H   0  0  0  0  0  0  0  0  0  0  0  0
   -6.6708    1.3718    1.9245 H   0  0  0  0  0  0  0  0  0  0  0  0
   -5.5560    0.1883    1.2207 H   0  0  0  0  0  0  0  0  0  0  0  0
   -1.3559    1.2240   -0.2518 H   0  0  0  0  0  0  0  0  0  0  0  0
    0.6740    2.4240    0.5624 H   0  0  0  0  0  0  0  0  0  0  0  0
  1  2  1  0  0  0  0
  2  3  2  0  0  0  0
  2  4  1  0  0  0  0
  4  5  1  0  0  0  0
  4 24  2  0  0  0  0
  5  6  2  0  0  0  0
  5 25  1  0  0  0  0
  6  7  1  0  0  0  0
  6 26  1  0  0  0  0
  7  8  1  0  0  0  0
  7 23  2  0  0  0  0
  8  9  1  0  0  0  0
  8 27  1  0  0  0  0
  8 28  1  0  0  0  0
  9 10  1  0  0  0  0
  9 18  1  0  0  0  0
 10 11  1  0  0  0  0
 10 29  1  0  0  0  0
 10 30  1  0  0  0  0
 11 12  1  0  0  0  0
 11 17  2  0  0  0  0
 12 13  2  0  0  0  0
 12 31  1  0  0  0  0
 13 14  1  0  0  0  0
 13 32  1  0  0  0  0
 14 15  1  0  0  0  0
 14 16  2  0  0  0  0
 16 17  1  0  0  0  0
 16 33  1  0  0  0  0
 17 34  1  0  0  0  0
 18 19  1  0  0  0  0
 18 35  1  0  0  0  0
 18 36  1  0  0  0  0
 19 20  1  0  0  0  0
 19 21  1  0  0  0  0
 19 22  1  0  0  0  0
 23 24  1  0  0  0  0
 23 37  1  0  0  0  0
 24 38  1  0  0  0  0
M  CHG  2   1  -1   2   1
M  END
> <SMILES QCArchive>
[H]c1c(c(c(c(c1C([H])([H])N(C([H])([H])c2c(c(c(c(c2[H])[H])Cl)[H])[H])C([H])([H])C(F)(F)F)[H])[H])[N+](=O)[O-])[H]

> <Energy QCArchive>
-1027814.3970337583

> <Record QCArchive>
36954909

> <Compound Name>
BRI-00959-6

> <final_energy>
-1027814.3970337583

$$$$
