BRI-00174-02
  -OEChem-11282313333D

 41 44  0     0  0  0  0  0  0999 V2000
    3.4337    2.0988   -2.2026 C   0  0  0  0  0  0  0  0  0  0  0  0
    2.5840    1.3938   -1.2373 N   0  0  0  0  0  0  0  0  0  0  0  0
    2.3159    1.9981    0.0180 C   0  0  0  0  0  0  0  0  0  0  0  0
    3.3274    2.7267    0.6683 C   0  0  0  0  0  0  0  0  0  0  0  0
    3.0982    3.3680    1.8790 C   0  0  0  0  0  0  0  0  0  0  0  0
    1.8430    3.2846    2.5096 C   0  0  0  0  0  0  0  0  0  0  0  0
    0.8454    2.5457    1.8717 C   0  0  0  0  0  0  0  0  0  0  0  0
    1.0529    1.9172    0.6339 C   0  0  0  0  0  0  0  0  0  0  0  0
   -0.0494    1.2470    0.0252 N   0  0  0  0  0  0  0  0  0  0  0  0
   -1.3133    1.9322    0.0170 C   0  0  0  0  0  0  0  0  0  0  0  0
   -2.4708    1.3261    0.5162 C   0  0  0  0  0  0  0  0  0  0  0  0
   -3.6752    2.0344    0.5151 C   0  0  0  0  0  0  0  0  0  0  0  0
   -3.7289    3.3439    0.0267 C   0  0  0  0  0  0  0  0  0  0  0  0
   -2.5674    3.9447   -0.4707 C   0  0  0  0  0  0  0  0  0  0  0  0
   -1.3627    3.2394   -0.4812 C   0  0  0  0  0  0  0  0  0  0  0  0
    0.0454   -0.0455   -0.4844 C   0  0  0  0  0  0  0  0  0  0  0  0
   -0.9121   -0.6463   -0.9491 O   0  0  0  0  0  0  0  0  0  0  0  0
    1.4436   -0.6443   -0.4654 C   0  0  0  0  0  0  0  0  0  0  0  0
    2.3153    0.0604   -1.4953 C   0  0  0  0  0  0  0  0  0  0  0  0
    2.7201   -0.4997   -2.5070 O   0  0  0  0  0  0  0  0  0  0  0  0
    1.5520    3.9425    3.8131 C   0  0  0  0  0  0  0  0  0  0  0  0
    2.1623    5.2896    4.1699 C   0  0  0  0  0  0  0  0  0  0  0  0
    2.6127    4.0507    4.8980 C   0  0  0  0  0  0  0  0  0  0  0  0
    3.1657    1.7654   -3.2051 H   0  0  0  0  0  0  0  0  0  0  0  0
    3.2610    3.1720   -2.1087 H   0  0  0  0  0  0  0  0  0  0  0  0
    4.4970    1.8830   -2.0476 H   0  0  0  0  0  0  0  0  0  0  0  0
    4.3085    2.7879    0.2081 H   0  0  0  0  0  0  0  0  0  0  0  0
    3.9098    3.9266    2.3373 H   0  0  0  0  0  0  0  0  0  0  0  0
   -0.1386    2.4678    2.3245 H   0  0  0  0  0  0  0  0  0  0  0  0
   -2.4305    0.3086    0.8871 H   0  0  0  0  0  0  0  0  0  0  0  0
   -4.5738    1.5596    0.8999 H   0  0  0  0  0  0  0  0  0  0  0  0
   -4.6681    3.8905    0.0308 H   0  0  0  0  0  0  0  0  0  0  0  0
   -2.5994    4.9597   -0.8579 H   0  0  0  0  0  0  0  0  0  0  0  0
   -0.4571    3.6989   -0.8667 H   0  0  0  0  0  0  0  0  0  0  0  0
    1.8877   -0.5633    0.5319 H   0  0  0  0  0  0  0  0  0  0  0  0
    1.3637   -1.6890   -0.7557 H   0  0  0  0  0  0  0  0  0  0  0  0
    0.5378    3.7840    4.1685 H   0  0  0  0  0  0  0  0  0  0  0  0
    2.8380    5.7355    3.4460 H   0  0  0  0  0  0  0  0  0  0  0  0
    1.5341    6.0012    4.6972 H   0  0  0  0  0  0  0  0  0  0  0  0
    2.2949    3.9098    5.9268 H   0  0  0  0  0  0  0  0  0  0  0  0
    3.5964    3.6498    4.6720 H   0  0  0  0  0  0  0  0  0  0  0  0
  1  2  1  0  0  0  0
  1 24  1  0  0  0  0
  1 25  1  0  0  0  0
  1 26  1  0  0  0  0
  2  3  1  0  0  0  0
  2 19  1  0  0  0  0
  3  4  1  0  0  0  0
  3  8  2  0  0  0  0
  4  5  2  0  0  0  0
  4 27  1  0  0  0  0
  5  6  1  0  0  0  0
  5 28  1  0  0  0  0
  6  7  2  0  0  0  0
  6 21  1  0  0  0  0
  7  8  1  0  0  0  0
  7 29  1  0  0  0  0
  8  9  1  0  0  0  0
  9 10  1  0  0  0  0
  9 16  1  0  0  0  0
 10 11  1  0  0  0  0
 10 15  2  0  0  0  0
 11 12  2  0  0  0  0
 11 30  1  0  0  0  0
 12 13  1  0  0  0  0
 12 31  1  0  0  0  0
 13 14  2  0  0  0  0
 13 32  1  0  0  0  0
 14 15  1  0  0  0  0
 14 33  1  0  0  0  0
 15 34  1  0  0  0  0
 16 17  2  0  0  0  0
 16 18  1  0  0  0  0
 18 19  1  0  0  0  0
 18 35  1  0  0  0  0
 18 36  1  0  0  0  0
 19 20  2  0  0  0  0
 21 22  1  0  0  0  0
 21 23  1  0  0  0  0
 21 37  1  0  0  0  0
 22 23  1  0  0  0  0
 22 38  1  0  0  0  0
 22 39  1  0  0  0  0
 23 40  1  0  0  0  0
 23 41  1  0  0  0  0
M  END
> <SMILES QCArchive>
[H]c1c(c(c(c(c1[H])[H])N2c3c(c(c(c(c3N(C(=O)C(C2=O)([H])[H])C([H])([H])[H])[H])[H])C4(C(C4([H])[H])([H])[H])[H])[H])[H])[H]

> <Energy QCArchive>
-624371.0048277923

> <Record QCArchive>
36954870

> <Compound Name>
BRI-00174-2

> <final_energy>
-624371.0048277923

$$$$
