BRI-00538-01
  -OEChem-11282313333D

 40 41  0     1  0  0  0  0  0999 V2000
   -1.6410    5.8217   -2.1756 C   0  0  0  0  0  0  0  0  0  0  0  0
   -0.3959    6.2487   -1.5355 N   0  0  1  0  0  0  0  0  0  0  0  0
   -0.2048    7.7008   -1.5988 C   0  0  0  0  0  0  0  0  0  0  0  0
    0.0080    8.2249   -3.0290 C   0  0  0  0  0  0  0  0  0  0  0  0
    0.4001    9.6850   -3.0257 C   0  0  0  0  0  0  0  0  0  0  0  0
   -0.5663   10.6959   -3.0844 C   0  0  0  0  0  0  0  0  0  0  0  0
   -0.2066   12.0470   -3.0266 C   0  0  0  0  0  0  0  0  0  0  0  0
    1.1332   12.4100   -2.9077 C   0  0  0  0  0  0  0  0  0  0  0  0
    1.4862   13.7331   -2.8565 O   0  0  0  0  0  0  0  0  0  0  0  0
    2.1108   11.4021   -2.8488 C   0  0  0  0  0  0  0  0  0  0  0  0
    3.4154   11.8530   -2.7378 O   0  0  0  0  0  0  0  0  0  0  0  0
    1.7489   10.0591   -2.9051 C   0  0  0  0  0  0  0  0  0  0  0  0
   -0.3305    5.7692   -0.1557 C   0  0  0  0  0  0  0  0  0  0  0  0
   -0.1400    4.2682   -0.0640 C   0  0  0  0  0  0  0  0  0  0  0  0
    0.7167    3.6091   -0.9601 C   0  0  0  0  0  0  0  0  0  0  0  0
    0.9315    2.2369   -0.8631 C   0  0  0  0  0  0  0  0  0  0  0  0
    0.2777    1.5234    0.1452 C   0  0  0  0  0  0  0  0  0  0  0  0
   -0.5810    2.1494    1.0493 C   0  0  0  0  0  0  0  0  0  0  0  0
   -0.7849    3.5246    0.9334 C   0  0  0  0  0  0  0  0  0  0  0  0
    0.4953    0.0733    0.2517 N   0  3  0  0  0  0  0  0  0  0  0  0
   -0.1002   -0.5358    1.1481 O   0  5  0  0  0  0  0  0  0  0  0  0
    1.2621   -0.4556   -0.5616 O   0  0  0  0  0  0  0  0  0  0  0  0
   -1.6218    6.0558   -3.2419 H   0  0  0  0  0  0  0  0  0  0  0  0
   -2.5308    6.3033   -1.7279 H   0  0  0  0  0  0  0  0  0  0  0  0
   -1.7539    4.7391   -2.0788 H   0  0  0  0  0  0  0  0  0  0  0  0
    0.6867    7.9454   -1.0114 H   0  0  0  0  0  0  0  0  0  0  0  0
   -1.0488    8.2465   -1.1353 H   0  0  0  0  0  0  0  0  0  0  0  0
    0.7843    7.6154   -3.5048 H   0  0  0  0  0  0  0  0  0  0  0  0
   -0.9051    8.0992   -3.6182 H   0  0  0  0  0  0  0  0  0  0  0  0
   -1.6161   10.4295   -3.1816 H   0  0  0  0  0  0  0  0  0  0  0  0
   -0.9546   12.8328   -3.0781 H   0  0  0  0  0  0  0  0  0  0  0  0
    2.4555   13.7800   -2.7856 H   0  0  0  0  0  0  0  0  0  0  0  0
    4.0238   11.0979   -2.7365 H   0  0  0  0  0  0  0  0  0  0  0  0
    2.5218    9.2916   -2.8598 H   0  0  0  0  0  0  0  0  0  0  0  0
   -1.2210    6.0613    0.4319 H   0  0  0  0  0  0  0  0  0  0  0  0
    0.5290    6.2507    0.3264 H   0  0  0  0  0  0  0  0  0  0  0  0
    1.1972    4.1874   -1.7432 H   0  0  0  0  0  0  0  0  0  0  0  0
    1.5885    1.7137   -1.5482 H   0  0  0  0  0  0  0  0  0  0  0  0
   -1.0759    1.5623    1.8140 H   0  0  0  0  0  0  0  0  0  0  0  0
   -1.4594    4.0232    1.6252 H   0  0  0  0  0  0  0  0  0  0  0  0
  1  2  1  0  0  0  0
  1 23  1  0  0  0  0
  1 24  1  0  0  0  0
  1 25  1  0  0  0  0
  2  3  1  0  0  0  0
  2 13  1  0  0  0  0
  3  4  1  0  0  0  0
  3 26  1  0  0  0  0
  3 27  1  0  0  0  0
  4  5  1  0  0  0  0
  4 28  1  0  0  0  0
  4 29  1  0  0  0  0
  5  6  1  0  0  0  0
  5 12  2  0  0  0  0
  6  7  2  0  0  0  0
  6 30  1  0  0  0  0
  7  8  1  0  0  0  0
  7 31  1  0  0  0  0
  8  9  1  0  0  0  0
  8 10  2  0  0  0  0
  9 32  1  0  0  0  0
 10 11  1  0  0  0  0
 10 12  1  0  0  0  0
 11 33  1  0  0  0  0
 12 34  1  0  0  0  0
 13 14  1  0  0  0  0
 13 35  1  0  0  0  0
 13 36  1  0  0  0  0
 14 15  1  0  0  0  0
 14 19  2  0  0  0  0
 15 16  2  0  0  0  0
 15 37  1  0  0  0  0
 16 17  1  0  0  0  0
 16 38  1  0  0  0  0
 17 18  2  0  0  0  0
 17 20  1  0  0  0  0
 18 19  1  0  0  0  0
 18 39  1  0  0  0  0
 19 40  1  0  0  0  0
 20 21  1  0  0  0  0
 20 22  2  0  0  0  0
M  CHG  2  20   1  21  -1
M  END
> <SMILES QCArchive>
[H]c1c(c(c(c(c1C([H])([H])N(C([H])([H])[H])C([H])([H])C([H])([H])c2c(c(c(c(c2[H])O[H])O[H])[H])[H])[H])[H])[N+](=O)[O-])[H]

> <Energy QCArchive>
-646981.9687220573

> <Record QCArchive>
36954878

> <Compound Name>
BRI-00538-1

> <final_energy>
-646981.9687220573

$$$$
