BRI-00959-00
  -OEChem-11282313333D

 38 39  0     1  0  0  0  0  0999 V2000
   -1.5994   -1.1692    0.6921 O   0  5  0  0  0  0  0  0  0  0  0  0
   -1.6960   -0.1817   -0.0446 N   0  3  0  0  0  0  0  0  0  0  0  0
   -1.3138   -0.1470   -1.2210 O   0  0  0  0  0  0  0  0  0  0  0  0
   -2.3080    1.0330    0.5114 C   0  0  0  0  0  0  0  0  0  0  0  0
   -2.7915    1.0112    1.8187 C   0  0  0  0  0  0  0  0  0  0  0  0
   -3.3920    2.1622    2.3281 C   0  0  0  0  0  0  0  0  0  0  0  0
   -3.5271    3.3107    1.5414 C   0  0  0  0  0  0  0  0  0  0  0  0
   -4.2314    4.5488    2.0673 C   0  0  0  0  0  0  0  0  0  0  0  0
   -5.3422    4.9712    1.1981 N   0  0  1  0  0  0  0  0  0  0  0  0
   -6.6249    4.3044    1.4810 C   0  0  0  0  0  0  0  0  0  0  0  0
   -6.5261    2.8010    1.3456 C   0  0  0  0  0  0  0  0  0  0  0  0
   -6.1205    2.2192    0.1364 C   0  0  0  0  0  0  0  0  0  0  0  0
   -5.9264    0.8443    0.0293 C   0  0  0  0  0  0  0  0  0  0  0  0
   -6.1563    0.0358    1.1472 C   0  0  0  0  0  0  0  0  0  0  0  0
   -5.8579   -1.6883    1.0364 Cl  0  0  0  0  0  0  0  0  0  0  0  0
   -6.6015    0.5834    2.3495 C   0  0  0  0  0  0  0  0  0  0  0  0
   -6.7809    1.9677    2.4384 C   0  0  0  0  0  0  0  0  0  0  0  0
   -5.4387    6.3909    0.9388 C   0  0  0  0  0  0  0  0  0  0  0  0
   -5.8899    7.2956    2.0932 C   0  0  0  0  0  0  0  0  0  0  0  0
   -5.1357    7.1230    3.2090 F   0  0  0  0  0  0  0  0  0  0  0  0
   -7.1802    7.0751    2.4523 F   0  0  0  0  0  0  0  0  0  0  0  0
   -5.7917    8.5999    1.7353 F   0  0  0  0  0  0  0  0  0  0  0  0
   -3.0100    3.3086    0.2366 C   0  0  0  0  0  0  0  0  0  0  0  0
   -2.3979    2.1761   -0.2886 C   0  0  0  0  0  0  0  0  0  0  0  0
   -2.7132    0.1032    2.4047 H   0  0  0  0  0  0  0  0  0  0  0  0
   -3.7972    2.1491    3.3357 H   0  0  0  0  0  0  0  0  0  0  0  0
   -4.5671    4.3784    3.0998 H   0  0  0  0  0  0  0  0  0  0  0  0
   -3.5065    5.3663    2.1146 H   0  0  0  0  0  0  0  0  0  0  0  0
   -6.9976    4.5470    2.4874 H   0  0  0  0  0  0  0  0  0  0  0  0
   -7.3579    4.6989    0.7683 H   0  0  0  0  0  0  0  0  0  0  0  0
   -5.9085    2.8562   -0.7176 H   0  0  0  0  0  0  0  0  0  0  0  0
   -5.5829    0.4015   -0.9001 H   0  0  0  0  0  0  0  0  0  0  0  0
   -6.7843   -0.0576    3.2062 H   0  0  0  0  0  0  0  0  0  0  0  0
   -7.1010    2.3997    3.3838 H   0  0  0  0  0  0  0  0  0  0  0  0
   -4.4654    6.7712    0.6158 H   0  0  0  0  0  0  0  0  0  0  0  0
   -6.1463    6.5677    0.1221 H   0  0  0  0  0  0  0  0  0  0  0  0
   -3.1230    4.1949   -0.3815 H   0  0  0  0  0  0  0  0  0  0  0  0
   -2.0038    2.1556   -1.2979 H   0  0  0  0  0  0  0  0  0  0  0  0
  1  2  1  0  0  0  0
  2  3  2  0  0  0  0
  2  4  1  0  0  0  0
  4  5  1  0  0  0  0
  4 24  2  0  0  0  0
  5  6  2  0  0  0  0
  5 25  1  0  0  0  0
  6  7  1  0  0  0  0
  6 26  1  0  0  0  0
  7  8  1  0  0  0  0
  7 23  2  0  0  0  0
  8  9  1  0  0  0  0
  8 27  1  0  0  0  0
  8 28  1  0  0  0  0
  9 10  1  0  0  0  0
  9 18  1  0  0  0  0
 10 11  1  0  0  0  0
 10 29  1  0  0  0  0
 10 30  1  0  0  0  0
 11 12  1  0  0  0  0
 11 17  2  0  0  0  0
 12 13  2  0  0  0  0
 12 31  1  0  0  0  0
 13 14  1  0  0  0  0
 13 32  1  0  0  0  0
 14 15  1  0  0  0  0
 14 16  2  0  0  0  0
 16 17  1  0  0  0  0
 16 33  1  0  0  0  0
 17 34  1  0  0  0  0
 18 19  1  0  0  0  0
 18 35  1  0  0  0  0
 18 36  1  0  0  0  0
 19 20  1  0  0  0  0
 19 21  1  0  0  0  0
 19 22  1  0  0  0  0
 23 24  1  0  0  0  0
 23 37  1  0  0  0  0
 24 38  1  0  0  0  0
M  CHG  2   1  -1   2   1
M  END
> <SMILES QCArchive>
[H]c1c(c(c(c(c1C([H])([H])N(C([H])([H])c2c(c(c(c(c2[H])[H])Cl)[H])[H])C([H])([H])C(F)(F)F)[H])[H])[N+](=O)[O-])[H]

> <Energy QCArchive>
-1027818.4238774223

> <Record QCArchive>
36954903

> <Compound Name>
BRI-00959-0

> <final_energy>
-1027818.4238774223

$$$$
