BRI-01356-09
  -OEChem-11282313333D

 43 44  0     0  0  0  0  0  0999 V2000
   -2.9773    4.2451    1.1186 N   0  0  0  0  0  0  0  0  0  0  0  0
   -2.6161    3.3453    0.1306 C   0  0  0  0  0  0  0  0  0  0  0  0
   -3.4602    2.8087   -0.5842 O   0  0  0  0  0  0  0  0  0  0  0  0
   -1.1559    3.0395    0.0111 C   0  0  0  0  0  0  0  0  0  0  0  0
   -0.7016    2.4378   -1.1711 C   0  0  0  0  0  0  0  0  0  0  0  0
    0.6427    2.1291   -1.3621 C   0  0  0  0  0  0  0  0  0  0  0  0
    1.5685    2.4125   -0.3412 C   0  0  0  0  0  0  0  0  0  0  0  0
    2.9400    2.1303   -0.4478 N   0  0  0  0  0  0  0  0  0  0  0  0
    3.6379    1.5967   -1.4982 C   0  0  0  0  0  0  0  0  0  0  0  0
    3.1658    1.2417   -2.5743 O   0  0  0  0  0  0  0  0  0  0  0  0
    5.1346    1.4210   -1.2003 C   0  0  0  0  0  0  0  0  0  0  0  0
    5.6102    2.2491   -0.0922 N   0  0  0  0  0  0  0  0  0  0  0  0
    5.9318    3.6291   -0.5029 C   0  0  0  0  0  0  0  0  0  0  0  0
    7.2547    3.7527   -1.2773 C   0  0  0  0  0  0  0  0  0  0  0  0
    8.4084    3.1295   -0.4779 C   0  0  0  0  0  0  0  0  0  0  0  0
    8.0686    1.6931   -0.0698 C   0  0  0  0  0  0  0  0  0  0  0  0
    6.7199    1.6612    0.6697 C   0  0  0  0  0  0  0  0  0  0  0  0
    9.6834    3.1622   -1.2028 N   0  0  0  0  0  0  0  0  0  0  0  0
   10.3828    4.3528   -1.2818 C   0  0  0  0  0  0  0  0  0  0  0  0
   11.4867    4.3101   -2.0942 O   0  0  0  0  0  0  0  0  0  0  0  0
   10.0969    5.3647   -0.6762 O   0  0  0  0  0  0  0  0  0  0  0  0
    1.1189    2.9978    0.8563 C   0  0  0  0  0  0  0  0  0  0  0  0
   -0.2262    3.3094    1.0281 C   0  0  0  0  0  0  0  0  0  0  0  0
   -2.3132    4.9526    1.4047 H   0  0  0  0  0  0  0  0  0  0  0  0
   -3.9437    4.5474    1.0696 H   0  0  0  0  0  0  0  0  0  0  0  0
   -1.4286    2.2135   -1.9455 H   0  0  0  0  0  0  0  0  0  0  0  0
    0.9850    1.6726   -2.2810 H   0  0  0  0  0  0  0  0  0  0  0  0
    3.5423    2.3676    0.3401 H   0  0  0  0  0  0  0  0  0  0  0  0
    5.2716    0.3652   -0.9431 H   0  0  0  0  0  0  0  0  0  0  0  0
    5.6565    1.5814   -2.1523 H   0  0  0  0  0  0  0  0  0  0  0  0
    5.9877    4.2414    0.4057 H   0  0  0  0  0  0  0  0  0  0  0  0
    5.1013    4.0202   -1.0985 H   0  0  0  0  0  0  0  0  0  0  0  0
    7.1731    3.2498   -2.2497 H   0  0  0  0  0  0  0  0  0  0  0  0
    7.4724    4.8067   -1.4741 H   0  0  0  0  0  0  0  0  0  0  0  0
    8.5656    3.7266    0.4252 H   0  0  0  0  0  0  0  0  0  0  0  0
    8.0145    1.0527   -0.9612 H   0  0  0  0  0  0  0  0  0  0  0  0
    8.8592    1.2886    0.5717 H   0  0  0  0  0  0  0  0  0  0  0  0
    6.4537    0.6356    0.9423 H   0  0  0  0  0  0  0  0  0  0  0  0
    6.8130    2.2258    1.6061 H   0  0  0  0  0  0  0  0  0  0  0  0
    9.7378    2.5423   -2.0040 H   0  0  0  0  0  0  0  0  0  0  0  0
   11.7178    3.3906   -2.3074 H   0  0  0  0  0  0  0  0  0  0  0  0
    1.8283    3.1989    1.6565 H   0  0  0  0  0  0  0  0  0  0  0  0
   -0.5494    3.7283    1.9770 H   0  0  0  0  0  0  0  0  0  0  0  0
  1  2  1  0  0  0  0
  1 24  1  0  0  0  0
  1 25  1  0  0  0  0
  2  3  2  0  0  0  0
  2  4  1  0  0  0  0
  4  5  1  0  0  0  0
  4 23  2  0  0  0  0
  5  6  2  0  0  0  0
  5 26  1  0  0  0  0
  6  7  1  0  0  0  0
  6 27  1  0  0  0  0
  7  8  1  0  0  0  0
  7 22  2  0  0  0  0
  8  9  1  0  0  0  0
  8 28  1  0  0  0  0
  9 10  2  0  0  0  0
  9 11  1  0  0  0  0
 11 12  1  0  0  0  0
 11 29  1  0  0  0  0
 11 30  1  0  0  0  0
 12 13  1  0  0  0  0
 12 17  1  0  0  0  0
 13 14  1  0  0  0  0
 13 31  1  0  0  0  0
 13 32  1  0  0  0  0
 14 15  1  0  0  0  0
 14 33  1  0  0  0  0
 14 34  1  0  0  0  0
 15 16  1  0  0  0  0
 15 18  1  0  0  0  0
 15 35  1  0  0  0  0
 16 17  1  0  0  0  0
 16 36  1  0  0  0  0
 16 37  1  0  0  0  0
 17 38  1  0  0  0  0
 17 39  1  0  0  0  0
 18 19  1  0  0  0  0
 18 40  1  0  0  0  0
 19 20  1  0  0  0  0
 19 21  2  0  0  0  0
 20 41  1  0  0  0  0
 22 23  1  0  0  0  0
 22 42  1  0  0  0  0
 23 43  1  0  0  0  0
M  END
> <SMILES QCArchive>
[H]c1c(c(c(c(c1C(=O)N([H])[H])[H])[H])N([H])C(=O)C([H])([H])N2C(C(C(C(C2([H])[H])([H])[H])([H])N([H])C(=O)O[H])([H])[H])([H])[H])[H]

> <Energy QCArchive>
-692657.1078598866

> <Record QCArchive>
36954837

> <Compound Name>
BRI-01356-9

> <final_energy>
-692657.1078598866

$$$$
