BRI-00226-00
  -OEChem-11282313333D

 60 63  0     1  0  0  0  0  0999 V2000
   -2.0966    1.2520    7.0637 O   0  0  0  0  0  0  0  0  0  0  0  0
   -1.0448    2.0058    6.6151 C   0  0  0  0  0  0  0  0  0  0  0  0
   -1.0164    3.2269    6.7195 O   0  0  0  0  0  0  0  0  0  0  0  0
   -0.0741    1.2385    6.0583 N   0  0  0  0  0  0  0  0  0  0  0  0
    1.2361    1.8161    5.7274 C   0  0  0  0  0  0  0  0  0  0  0  0
    2.1920    0.6398    5.9569 C   0  0  0  0  0  0  0  0  0  0  0  0
    1.3475   -0.5717    5.5393 C   0  0  0  0  0  0  0  0  0  0  0  0
   -0.0786   -0.2358    6.0425 C   0  0  2  0  0  0  0  0  0  0  0  0
   -0.2112   -0.6084    7.0645 H   0  0  0  0  0  0  0  0  0  0  0  0
   -1.1533   -0.8437    5.1636 C   0  0  0  0  0  0  0  0  0  0  0  0
   -1.5894   -0.1999    3.9978 C   0  0  0  0  0  0  0  0  0  0  0  0
   -2.5231   -0.8130    3.1613 C   0  0  0  0  0  0  0  0  0  0  0  0
   -3.0397   -2.0712    3.4831 C   0  0  0  0  0  0  0  0  0  0  0  0
   -2.6194   -2.7199    4.6538 C   0  0  0  0  0  0  0  0  0  0  0  0
   -1.6705   -2.1002    5.4778 C   0  0  0  0  0  0  0  0  0  0  0  0
   -3.1076   -4.0796    5.0714 C   0  0  0  0  0  0  0  0  0  0  0  0
   -2.4225   -4.8163    5.7812 O   0  0  0  0  0  0  0  0  0  0  0  0
   -4.3621   -4.4089    4.6107 N   0  0  0  0  0  0  0  0  0  0  0  0
   -5.0896   -5.6066    4.7917 C   0  0  0  0  0  0  0  0  0  0  0  0
   -6.3929   -5.6522    4.2660 C   0  0  0  0  0  0  0  0  0  0  0  0
   -7.1716   -6.7992    4.3922 C   0  0  0  0  0  0  0  0  0  0  0  0
   -6.6792   -7.9381    5.0489 C   0  0  0  0  0  0  0  0  0  0  0  0
   -7.4975   -9.2035    5.1537 C   0  0  0  0  0  0  0  0  0  0  0  0
   -7.5529  -10.0014    3.8351 C   0  0  0  0  0  0  0  0  0  0  0  0
   -8.2918   -9.3102    2.7832 N   0  0  0  0  0  0  0  0  0  0  0  0
   -9.7368   -9.2738    3.0451 C   0  0  0  0  0  0  0  0  0  0  0  0
  -10.5092   -9.0207    1.7572 C   0  0  0  0  0  0  0  0  0  0  0  0
  -10.3466  -10.0771    0.8053 O   0  0  0  0  0  0  0  0  0  0  0  0
   -9.0631  -10.7148    0.8690 C   0  0  0  0  0  0  0  0  0  0  0  0
   -7.9935   -9.7728    1.4161 C   0  0  0  0  0  0  0  0  0  0  0  0
   -5.3803   -7.8757    5.5685 C   0  0  0  0  0  0  0  0  0  0  0  0
   -4.5811   -6.7348    5.4529 C   0  0  0  0  0  0  0  0  0  0  0  0
   -2.7342    1.8969    7.4179 H   0  0  0  0  0  0  0  0  0  0  0  0
    1.4303    2.6828    6.3609 H   0  0  0  0  0  0  0  0  0  0  0  0
    1.2553    2.1499    4.6820 H   0  0  0  0  0  0  0  0  0  0  0  0
    3.1174    0.7326    5.3825 H   0  0  0  0  0  0  0  0  0  0  0  0
    2.4538    0.5766    7.0187 H   0  0  0  0  0  0  0  0  0  0  0  0
    1.3319   -0.6637    4.4485 H   0  0  0  0  0  0  0  0  0  0  0  0
    1.7000   -1.5215    5.9480 H   0  0  0  0  0  0  0  0  0  0  0  0
   -1.2013    0.7849    3.7513 H   0  0  0  0  0  0  0  0  0  0  0  0
   -2.8457   -0.3140    2.2512 H   0  0  0  0  0  0  0  0  0  0  0  0
   -3.7340   -2.5488    2.7961 H   0  0  0  0  0  0  0  0  0  0  0  0
   -1.3483   -2.6252    6.3730 H   0  0  0  0  0  0  0  0  0  0  0  0
   -4.8703   -3.6716    4.1411 H   0  0  0  0  0  0  0  0  0  0  0  0
   -6.7976   -4.7815    3.7517 H   0  0  0  0  0  0  0  0  0  0  0  0
   -8.1689   -6.8144    3.9644 H   0  0  0  0  0  0  0  0  0  0  0  0
   -8.5160   -8.9766    5.4880 H   0  0  0  0  0  0  0  0  0  0  0  0
   -7.0641   -9.8575    5.9183 H   0  0  0  0  0  0  0  0  0  0  0  0
   -7.9814  -11.0009    4.0475 H   0  0  0  0  0  0  0  0  0  0  0  0
   -6.5255  -10.1539    3.4901 H   0  0  0  0  0  0  0  0  0  0  0  0
  -10.0933  -10.2207    3.4917 H   0  0  0  0  0  0  0  0  0  0  0  0
   -9.9732   -8.4769    3.7617 H   0  0  0  0  0  0  0  0  0  0  0  0
  -11.5803   -8.9553    1.9681 H   0  0  0  0  0  0  0  0  0  0  0  0
  -10.1905   -8.0641    1.3176 H   0  0  0  0  0  0  0  0  0  0  0  0
   -9.1305  -11.6151    1.4980 H   0  0  0  0  0  0  0  0  0  0  0  0
   -8.8178  -11.0320   -0.1499 H   0  0  0  0  0  0  0  0  0  0  0  0
   -7.0238  -10.2786    1.4079 H   0  0  0  0  0  0  0  0  0  0  0  0
   -7.9042   -8.9078    0.7462 H   0  0  0  0  0  0  0  0  0  0  0  0
   -4.9726   -8.7422    6.0858 H   0  0  0  0  0  0  0  0  0  0  0  0
   -3.5849   -6.7079    5.8716 H   0  0  0  0  0  0  0  0  0  0  0  0
  1  2  1  0  0  0  0
  1 33  1  0  0  0  0
  2  3  2  0  0  0  0
  2  4  1  0  0  0  0
  4  5  1  0  0  0  0
  4  8  1  0  0  0  0
  5  6  1  0  0  0  0
  5 34  1  0  0  0  0
  5 35  1  0  0  0  0
  6  7  1  0  0  0  0
  6 36  1  0  0  0  0
  6 37  1  0  0  0  0
  7  8  1  0  0  0  0
  7 38  1  0  0  0  0
  7 39  1  0  0  0  0
  8  9  1  0  0  0  0
  8 10  1  0  0  0  0
 10 11  1  0  0  0  0
 10 15  2  0  0  0  0
 11 12  2  0  0  0  0
 11 40  1  0  0  0  0
 12 13  1  0  0  0  0
 12 41  1  0  0  0  0
 13 14  2  0  0  0  0
 13 42  1  0  0  0  0
 14 15  1  0  0  0  0
 14 16  1  0  0  0  0
 15 43  1  0  0  0  0
 16 17  2  0  0  0  0
 16 18  1  0  0  0  0
 18 19  1  0  0  0  0
 18 44  1  0  0  0  0
 19 20  1  0  0  0  0
 19 32  2  0  0  0  0
 20 21  2  0  0  0  0
 20 45  1  0  0  0  0
 21 22  1  0  0  0  0
 21 46  1  0  0  0  0
 22 23  1  0  0  0  0
 22 31  2  0  0  0  0
 23 24  1  0  0  0  0
 23 47  1  0  0  0  0
 23 48  1  0  0  0  0
 24 25  1  0  0  0  0
 24 49  1  0  0  0  0
 24 50  1  0  0  0  0
 25 26  1  0  0  0  0
 25 30  1  0  0  0  0
 26 27  1  0  0  0  0
 26 51  1  0  0  0  0
 26 52  1  0  0  0  0
 27 28  1  0  0  0  0
 27 53  1  0  0  0  0
 27 54  1  0  0  0  0
 28 29  1  0  0  0  0
 29 30  1  0  0  0  0
 29 55  1  0  0  0  0
 29 56  1  0  0  0  0
 30 57  1  0  0  0  0
 30 58  1  0  0  0  0
 31 32  1  0  0  0  0
 31 59  1  0  0  0  0
 32 60  1  0  0  0  0
M  END
> <SMILES QCArchive>
[H]c1c(c(c(c(c1[H])[C@]2(C(C(C(N2C(=O)O[H])([H])[H])([H])[H])([H])[H])[H])[H])C(=O)N([H])c3c(c(c(c(c3[H])[H])C([H])([H])C([H])([H])N4C(C(OC(C4([H])[H])([H])[H])([H])[H])([H])[H])[H])[H])[H]

> <Energy QCArchive>
-876925.1741620546

> <Record QCArchive>
36954846

> <Compound Name>
BRI-00226-0

> <final_energy>
-876925.1741620546

$$$$
