BRI-00226-07
  -OEChem-11282313333D

 60 63  0     1  0  0  0  0  0999 V2000
   -2.3291   -0.5513    8.0033 O   0  0  0  0  0  0  0  0  0  0  0  0
   -1.2234    0.2515    8.0881 C   0  0  0  0  0  0  0  0  0  0  0  0
   -1.0515    1.0457    9.0053 O   0  0  0  0  0  0  0  0  0  0  0  0
   -0.3716    0.0483    7.0510 N   0  0  0  0  0  0  0  0  0  0  0  0
    0.9758    0.6332    7.0628 C   0  0  0  0  0  0  0  0  0  0  0  0
    1.7970   -0.3925    6.2728 C   0  0  0  0  0  0  0  0  0  0  0  0
    0.7892   -0.9118    5.2381 C   0  0  0  0  0  0  0  0  0  0  0  0
   -0.5515   -0.9803    6.0094 C   0  0  2  0  0  0  0  0  0  0  0  0
   -0.6562   -1.9619    6.4869 H   0  0  0  0  0  0  0  0  0  0  0  0
   -1.7541   -0.7464    5.1174 C   0  0  0  0  0  0  0  0  0  0  0  0
   -2.0779    0.5406    4.6699 C   0  0  0  0  0  0  0  0  0  0  0  0
   -3.1752    0.7408    3.8300 C   0  0  0  0  0  0  0  0  0  0  0  0
   -3.9553   -0.3413    3.4197 C   0  0  0  0  0  0  0  0  0  0  0  0
   -3.6327   -1.6368    3.8432 C   0  0  0  0  0  0  0  0  0  0  0  0
   -2.5376   -1.8247    4.7011 C   0  0  0  0  0  0  0  0  0  0  0  0
   -4.5249   -2.7560    3.3804 C   0  0  0  0  0  0  0  0  0  0  0  0
   -5.6881   -2.5482    3.0364 O   0  0  0  0  0  0  0  0  0  0  0  0
   -3.9317   -3.9988    3.3638 N   0  0  0  0  0  0  0  0  0  0  0  0
   -4.4940   -5.2489    3.0211 C   0  0  0  0  0  0  0  0  0  0  0  0
   -5.8485   -5.4311    2.6958 C   0  0  0  0  0  0  0  0  0  0  0  0
   -6.3140   -6.7092    2.3831 C   0  0  0  0  0  0  0  0  0  0  0  0
   -5.4707   -7.8296    2.3758 C   0  0  0  0  0  0  0  0  0  0  0  0
   -5.9964   -9.2139    2.0776 C   0  0  0  0  0  0  0  0  0  0  0  0
   -6.7638   -9.8394    3.2605 C   0  0  0  0  0  0  0  0  0  0  0  0
   -8.0109   -9.1442    3.5584 N   0  0  0  0  0  0  0  0  0  0  0  0
   -8.5381   -9.3771    4.9142 C   0  0  0  0  0  0  0  0  0  0  0  0
   -9.6663  -10.4056    4.9358 C   0  0  0  0  0  0  0  0  0  0  0  0
  -10.7812   -9.9852    4.1371 O   0  0  0  0  0  0  0  0  0  0  0  0
  -10.4246   -9.0830    3.0844 C   0  0  0  0  0  0  0  0  0  0  0  0
   -9.0347   -9.3614    2.5274 C   0  0  0  0  0  0  0  0  0  0  0  0
   -4.1220   -7.6283    2.7002 C   0  0  0  0  0  0  0  0  0  0  0  0
   -3.6362   -6.3608    3.0187 C   0  0  0  0  0  0  0  0  0  0  0  0
   -2.8818   -0.3019    8.7652 H   0  0  0  0  0  0  0  0  0  0  0  0
    0.9739    1.6129    6.5678 H   0  0  0  0  0  0  0  0  0  0  0  0
    1.3100    0.7779    8.0913 H   0  0  0  0  0  0  0  0  0  0  0  0
    2.1160   -1.2031    6.9368 H   0  0  0  0  0  0  0  0  0  0  0  0
    2.6888    0.0453    5.8168 H   0  0  0  0  0  0  0  0  0  0  0  0
    1.0539   -1.8823    4.8109 H   0  0  0  0  0  0  0  0  0  0  0  0
    0.6943   -0.1997    4.4121 H   0  0  0  0  0  0  0  0  0  0  0  0
   -1.4859    1.3889    5.0048 H   0  0  0  0  0  0  0  0  0  0  0  0
   -3.4282    1.7450    3.4998 H   0  0  0  0  0  0  0  0  0  0  0  0
   -4.8228   -0.2036    2.7822 H   0  0  0  0  0  0  0  0  0  0  0  0
   -2.3152   -2.8098    5.1071 H   0  0  0  0  0  0  0  0  0  0  0  0
   -2.9383   -4.0198    3.5506 H   0  0  0  0  0  0  0  0  0  0  0  0
   -6.5149   -4.5799    2.6873 H   0  0  0  0  0  0  0  0  0  0  0  0
   -7.3658   -6.8351    2.1460 H   0  0  0  0  0  0  0  0  0  0  0  0
   -6.6404   -9.1966    1.1915 H   0  0  0  0  0  0  0  0  0  0  0  0
   -5.1613   -9.8805    1.8351 H   0  0  0  0  0  0  0  0  0  0  0  0
   -6.1213   -9.7869    4.1451 H   0  0  0  0  0  0  0  0  0  0  0  0
   -6.9338  -10.9120    3.0396 H   0  0  0  0  0  0  0  0  0  0  0  0
   -7.7264   -9.7131    5.5659 H   0  0  0  0  0  0  0  0  0  0  0  0
   -8.9080   -8.4322    5.3321 H   0  0  0  0  0  0  0  0  0  0  0  0
   -9.2985  -11.3763    4.5705 H   0  0  0  0  0  0  0  0  0  0  0  0
  -10.0428  -10.5485    5.9543 H   0  0  0  0  0  0  0  0  0  0  0  0
  -11.1760   -9.2103    2.3002 H   0  0  0  0  0  0  0  0  0  0  0  0
  -10.4788   -8.0443    3.4414 H   0  0  0  0  0  0  0  0  0  0  0  0
   -9.0093  -10.3977    2.1420 H   0  0  0  0  0  0  0  0  0  0  0  0
   -8.8580   -8.6992    1.6702 H   0  0  0  0  0  0  0  0  0  0  0  0
   -3.4364   -8.4733    2.7029 H   0  0  0  0  0  0  0  0  0  0  0  0
   -2.5828   -6.2331    3.2642 H   0  0  0  0  0  0  0  0  0  0  0  0
  1  2  1  0  0  0  0
  1 33  1  0  0  0  0
  2  3  2  0  0  0  0
  2  4  1  0  0  0  0
  4  5  1  0  0  0  0
  4  8  1  0  0  0  0
  5  6  1  0  0  0  0
  5 34  1  0  0  0  0
  5 35  1  0  0  0  0
  6  7  1  0  0  0  0
  6 36  1  0  0  0  0
  6 37  1  0  0  0  0
  7  8  1  0  0  0  0
  7 38  1  0  0  0  0
  7 39  1  0  0  0  0
  8  9  1  0  0  0  0
  8 10  1  0  0  0  0
 10 11  1  0  0  0  0
 10 15  2  0  0  0  0
 11 12  2  0  0  0  0
 11 40  1  0  0  0  0
 12 13  1  0  0  0  0
 12 41  1  0  0  0  0
 13 14  2  0  0  0  0
 13 42  1  0  0  0  0
 14 15  1  0  0  0  0
 14 16  1  0  0  0  0
 15 43  1  0  0  0  0
 16 17  2  0  0  0  0
 16 18  1  0  0  0  0
 18 19  1  0  0  0  0
 18 44  1  0  0  0  0
 19 20  1  0  0  0  0
 19 32  2  0  0  0  0
 20 21  2  0  0  0  0
 20 45  1  0  0  0  0
 21 22  1  0  0  0  0
 21 46  1  0  0  0  0
 22 23  1  0  0  0  0
 22 31  2  0  0  0  0
 23 24  1  0  0  0  0
 23 47  1  0  0  0  0
 23 48  1  0  0  0  0
 24 25  1  0  0  0  0
 24 49  1  0  0  0  0
 24 50  1  0  0  0  0
 25 26  1  0  0  0  0
 25 30  1  0  0  0  0
 26 27  1  0  0  0  0
 26 51  1  0  0  0  0
 26 52  1  0  0  0  0
 27 28  1  0  0  0  0
 27 53  1  0  0  0  0
 27 54  1  0  0  0  0
 28 29  1  0  0  0  0
 29 30  1  0  0  0  0
 29 55  1  0  0  0  0
 29 56  1  0  0  0  0
 30 57  1  0  0  0  0
 30 58  1  0  0  0  0
 31 32  1  0  0  0  0
 31 59  1  0  0  0  0
 32 60  1  0  0  0  0
M  END
> <SMILES QCArchive>
[H]c1c(c(c(c(c1[H])[C@]2(C(C(C(N2C(=O)O[H])([H])[H])([H])[H])([H])[H])[H])[H])C(=O)N([H])c3c(c(c(c(c3[H])[H])C([H])([H])C([H])([H])N4C(C(OC(C4([H])[H])([H])[H])([H])[H])([H])[H])[H])[H])[H]

> <Energy QCArchive>
-876924.5732822747

> <Record QCArchive>
36954853

> <Compound Name>
BRI-00226-7

> <final_energy>
-876924.5732822747

$$$$
