BRI-00528-06
  -OEChem-11282313333D

 47 48  0     0  0  0  0  0  0999 V2000
    1.3495    5.4430    5.6036 C   0  0  0  0  0  0  0  0  0  0  0  0
   -0.0902    5.0387    5.3184 C   0  0  0  0  0  0  0  0  0  0  0  0
   -0.8253    4.5135    6.5471 C   0  0  0  0  0  0  0  0  0  0  0  0
   -0.0166    3.9907    4.3060 O   0  0  0  0  0  0  0  0  0  0  0  0
   -1.1193    3.8281    3.5230 C   0  0  0  0  0  0  0  0  0  0  0  0
   -2.1245    4.5252    3.5733 O   0  0  0  0  0  0  0  0  0  0  0  0
   -0.9466    2.7623    2.6849 N   0  0  0  0  0  0  0  0  0  0  0  0
   -1.8742    2.5058    1.5875 C   0  0  0  0  0  0  0  0  0  0  0  0
   -1.7901    1.0351    1.1629 C   0  0  0  0  0  0  0  0  0  0  0  0
   -2.7276    0.7537   -0.0194 C   0  0  0  0  0  0  0  0  0  0  0  0
   -2.4652    1.6775   -1.1217 N   0  0  0  0  0  0  0  0  0  0  0  0
   -2.5877    3.0928   -0.7654 C   0  0  0  0  0  0  0  0  0  0  0  0
   -1.6388    3.4403    0.3884 C   0  0  0  0  0  0  0  0  0  0  0  0
   -1.7688    1.2230   -2.2060 C   0  0  0  0  0  0  0  0  0  0  0  0
   -1.5026    0.0441   -2.4208 O   0  0  0  0  0  0  0  0  0  0  0  0
   -1.4065    2.2423   -3.0387 O   0  0  0  0  0  0  0  0  0  0  0  0
   -0.8153    1.8420   -4.3063 C   0  0  0  0  0  0  0  0  0  0  0  0
   -1.8689    1.5944   -5.3565 C   0  0  0  0  0  0  0  0  0  0  0  0
   -2.4447    0.3234   -5.5061 C   0  0  0  0  0  0  0  0  0  0  0  0
   -3.4353    0.1071   -6.4680 C   0  0  0  0  0  0  0  0  0  0  0  0
   -3.8599    1.1567   -7.2905 C   0  0  0  0  0  0  0  0  0  0  0  0
   -3.2900    2.4262   -7.1473 C   0  0  0  0  0  0  0  0  0  0  0  0
   -2.3000    2.6409   -6.1841 C   0  0  0  0  0  0  0  0  0  0  0  0
    1.3710    6.2496    6.3431 H   0  0  0  0  0  0  0  0  0  0  0  0
    1.9196    4.5968    6.0007 H   0  0  0  0  0  0  0  0  0  0  0  0
    1.8415    5.7956    4.6923 H   0  0  0  0  0  0  0  0  0  0  0  0
   -0.6452    5.8749    4.8862 H   0  0  0  0  0  0  0  0  0  0  0  0
   -0.3044    3.6447    6.9633 H   0  0  0  0  0  0  0  0  0  0  0  0
   -0.8707    5.2908    7.3175 H   0  0  0  0  0  0  0  0  0  0  0  0
   -1.8479    4.2272    6.2899 H   0  0  0  0  0  0  0  0  0  0  0  0
   -0.0122    2.3757    2.6315 H   0  0  0  0  0  0  0  0  0  0  0  0
   -2.8758    2.7040    1.9823 H   0  0  0  0  0  0  0  0  0  0  0  0
   -2.0483    0.3882    2.0084 H   0  0  0  0  0  0  0  0  0  0  0  0
   -0.7628    0.7912    0.8606 H   0  0  0  0  0  0  0  0  0  0  0  0
   -2.6047   -0.2640   -0.3866 H   0  0  0  0  0  0  0  0  0  0  0  0
   -3.7719    0.8830    0.2934 H   0  0  0  0  0  0  0  0  0  0  0  0
   -2.3887    3.7044   -1.6422 H   0  0  0  0  0  0  0  0  0  0  0  0
   -3.6264    3.2740   -0.4593 H   0  0  0  0  0  0  0  0  0  0  0  0
   -1.7921    4.4777    0.7023 H   0  0  0  0  0  0  0  0  0  0  0  0
   -0.6014    3.3405    0.0445 H   0  0  0  0  0  0  0  0  0  0  0  0
   -0.1967    0.9592   -4.1412 H   0  0  0  0  0  0  0  0  0  0  0  0
   -0.1822    2.6884   -4.5788 H   0  0  0  0  0  0  0  0  0  0  0  0
   -2.1215   -0.4835   -4.8551 H   0  0  0  0  0  0  0  0  0  0  0  0
   -3.8757   -0.8808   -6.5771 H   0  0  0  0  0  0  0  0  0  0  0  0
   -4.6288    0.9860   -8.0399 H   0  0  0  0  0  0  0  0  0  0  0  0
   -3.6140    3.2446   -7.7853 H   0  0  0  0  0  0  0  0  0  0  0  0
   -1.8574    3.6289   -6.0741 H   0  0  0  0  0  0  0  0  0  0  0  0
  1  2  1  0  0  0  0
  1 24  1  0  0  0  0
  1 25  1  0  0  0  0
  1 26  1  0  0  0  0
  2  3  1  0  0  0  0
  2  4  1  0  0  0  0
  2 27  1  0  0  0  0
  3 28  1  0  0  0  0
  3 29  1  0  0  0  0
  3 30  1  0  0  0  0
  4  5  1  0  0  0  0
  5  6  2  0  0  0  0
  5  7  1  0  0  0  0
  7  8  1  0  0  0  0
  7 31  1  0  0  0  0
  8  9  1  0  0  0  0
  8 13  1  0  0  0  0
  8 32  1  0  0  0  0
  9 10  1  0  0  0  0
  9 33  1  0  0  0  0
  9 34  1  0  0  0  0
 10 11  1  0  0  0  0
 10 35  1  0  0  0  0
 10 36  1  0  0  0  0
 11 12  1  0  0  0  0
 11 14  1  0  0  0  0
 12 13  1  0  0  0  0
 12 37  1  0  0  0  0
 12 38  1  0  0  0  0
 13 39  1  0  0  0  0
 13 40  1  0  0  0  0
 14 15  2  0  0  0  0
 14 16  1  0  0  0  0
 16 17  1  0  0  0  0
 17 18  1  0  0  0  0
 17 41  1  0  0  0  0
 17 42  1  0  0  0  0
 18 19  1  0  0  0  0
 18 23  2  0  0  0  0
 19 20  2  0  0  0  0
 19 43  1  0  0  0  0
 20 21  1  0  0  0  0
 20 44  1  0  0  0  0
 21 22  2  0  0  0  0
 21 45  1  0  0  0  0
 22 23  1  0  0  0  0
 22 46  1  0  0  0  0
 23 47  1  0  0  0  0
M  END
> <SMILES QCArchive>
[H]c1c(c(c(c(c1[H])[H])C([H])([H])OC(=O)N2C(C(C(C(C2([H])[H])([H])[H])([H])N([H])C(=O)OC([H])(C([H])([H])[H])C([H])([H])[H])([H])[H])([H])[H])[H])[H]

> <Energy QCArchive>
-673281.236767945

> <Record QCArchive>
36954916

> <Compound Name>
BRI-00528-6

> <final_energy>
-673281.236767945

$$$$
