BRI-00174-05
  -OEChem-11282313333D

 41 44  0     0  0  0  0  0  0999 V2000
    3.5946    2.3562   -2.2149 C   0  0  0  0  0  0  0  0  0  0  0  0
    2.7136    1.5564   -1.3572 N   0  0  0  0  0  0  0  0  0  0  0  0
    2.4979    1.9642   -0.0162 C   0  0  0  0  0  0  0  0  0  0  0  0
    3.5594    2.5248    0.7180 C   0  0  0  0  0  0  0  0  0  0  0  0
    3.3765    2.9818    2.0171 C   0  0  0  0  0  0  0  0  0  0  0  0
    2.1252    2.8670    2.6485 C   0  0  0  0  0  0  0  0  0  0  0  0
    1.0819    2.2861    1.9315 C   0  0  0  0  0  0  0  0  0  0  0  0
    1.2398    1.8532    0.6048 C   0  0  0  0  0  0  0  0  0  0  0  0
    0.0923    1.3516   -0.0792 N   0  0  0  0  0  0  0  0  0  0  0  0
   -1.1284    2.0987    0.0573 C   0  0  0  0  0  0  0  0  0  0  0  0
   -1.1051    3.4717   -0.2155 C   0  0  0  0  0  0  0  0  0  0  0  0
   -2.2624    4.2352   -0.0537 C   0  0  0  0  0  0  0  0  0  0  0  0
   -3.4503    3.6291    0.3698 C   0  0  0  0  0  0  0  0  0  0  0  0
   -3.4701    2.2553    0.6312 C   0  0  0  0  0  0  0  0  0  0  0  0
   -2.3128    1.4868    0.4806 C   0  0  0  0  0  0  0  0  0  0  0  0
    0.1026    0.1513   -0.7847 C   0  0  0  0  0  0  0  0  0  0  0  0
   -0.8964   -0.3188   -1.3088 O   0  0  0  0  0  0  0  0  0  0  0  0
    1.4654   -0.5147   -0.8986 C   0  0  0  0  0  0  0  0  0  0  0  0
    2.3599    0.3006   -1.8218 C   0  0  0  0  0  0  0  0  0  0  0  0
    2.7154   -0.1074   -2.9209 O   0  0  0  0  0  0  0  0  0  0  0  0
    1.9461    3.3409    4.0570 C   0  0  0  0  0  0  0  0  0  0  0  0
    1.8441    4.8269    4.3544 C   0  0  0  0  0  0  0  0  0  0  0  0
    0.6383    3.9294    4.5330 C   0  0  0  0  0  0  0  0  0  0  0  0
    3.4938    3.4081   -1.9434 H   0  0  0  0  0  0  0  0  0  0  0  0
    4.6433    2.0517   -2.1225 H   0  0  0  0  0  0  0  0  0  0  0  0
    3.2916    2.2091   -3.2514 H   0  0  0  0  0  0  0  0  0  0  0  0
    4.5362    2.6058    0.2516 H   0  0  0  0  0  0  0  0  0  0  0  0
    4.2094    3.4294    2.5536 H   0  0  0  0  0  0  0  0  0  0  0  0
    0.1056    2.1801    2.3928 H   0  0  0  0  0  0  0  0  0  0  0  0
   -0.1797    3.9350   -0.5454 H   0  0  0  0  0  0  0  0  0  0  0  0
   -2.2376    5.3007   -0.2665 H   0  0  0  0  0  0  0  0  0  0  0  0
   -4.3530    4.2217    0.4917 H   0  0  0  0  0  0  0  0  0  0  0  0
   -4.3896    1.7765    0.9573 H   0  0  0  0  0  0  0  0  0  0  0  0
   -2.3300    0.4213    0.6769 H   0  0  0  0  0  0  0  0  0  0  0  0
    1.9288   -0.6210    0.0876 H   0  0  0  0  0  0  0  0  0  0  0  0
    1.3225   -1.4927   -1.3518 H   0  0  0  0  0  0  0  0  0  0  0  0
    2.4987    2.7631    4.7958 H   0  0  0  0  0  0  0  0  0  0  0  0
    1.8413    5.5037    3.5049 H   0  0  0  0  0  0  0  0  0  0  0  0
    2.3456    5.2075    5.2394 H   0  0  0  0  0  0  0  0  0  0  0  0
    0.3115    3.6982    5.5423 H   0  0  0  0  0  0  0  0  0  0  0  0
   -0.1672    4.0315    3.8119 H   0  0  0  0  0  0  0  0  0  0  0  0
  1  2  1  0  0  0  0
  1 24  1  0  0  0  0
  1 25  1  0  0  0  0
  1 26  1  0  0  0  0
  2  3  1  0  0  0  0
  2 19  1  0  0  0  0
  3  4  1  0  0  0  0
  3  8  2  0  0  0  0
  4  5  2  0  0  0  0
  4 27  1  0  0  0  0
  5  6  1  0  0  0  0
  5 28  1  0  0  0  0
  6  7  2  0  0  0  0
  6 21  1  0  0  0  0
  7  8  1  0  0  0  0
  7 29  1  0  0  0  0
  8  9  1  0  0  0  0
  9 10  1  0  0  0  0
  9 16  1  0  0  0  0
 10 11  1  0  0  0  0
 10 15  2  0  0  0  0
 11 12  2  0  0  0  0
 11 30  1  0  0  0  0
 12 13  1  0  0  0  0
 12 31  1  0  0  0  0
 13 14  2  0  0  0  0
 13 32  1  0  0  0  0
 14 15  1  0  0  0  0
 14 33  1  0  0  0  0
 15 34  1  0  0  0  0
 16 17  2  0  0  0  0
 16 18  1  0  0  0  0
 18 19  1  0  0  0  0
 18 35  1  0  0  0  0
 18 36  1  0  0  0  0
 19 20  2  0  0  0  0
 21 22  1  0  0  0  0
 21 23  1  0  0  0  0
 21 37  1  0  0  0  0
 22 23  1  0  0  0  0
 22 38  1  0  0  0  0
 22 39  1  0  0  0  0
 23 40  1  0  0  0  0
 23 41  1  0  0  0  0
M  END
> <SMILES QCArchive>
[H]c1c(c(c(c(c1[H])[H])N2c3c(c(c(c(c3N(C(=O)C(C2=O)([H])[H])C([H])([H])[H])[H])[H])C4(C(C4([H])[H])([H])[H])[H])[H])[H])[H]

> <Energy QCArchive>
-624370.5374411991

> <Record QCArchive>
36954873

> <Compound Name>
BRI-00174-5

> <final_energy>
-624370.5374411991

$$$$
