BRI-00538-09
  -OEChem-11282313333D

 40 41  0     1  0  0  0  0  0999 V2000
    2.4432    5.9494    0.6940 C   0  0  0  0  0  0  0  0  0  0  0  0
    2.3315    6.1555   -0.7482 N   0  0  2  0  0  0  0  0  0  0  0  0
    1.4172    7.2568   -1.0616 C   0  0  0  0  0  0  0  0  0  0  0  0
    1.5312    7.7564   -2.5115 C   0  0  0  0  0  0  0  0  0  0  0  0
    0.6649    8.9740   -2.7395 C   0  0  0  0  0  0  0  0  0  0  0  0
   -0.6989    8.8486   -3.0188 C   0  0  0  0  0  0  0  0  0  0  0  0
   -1.5020    9.9844   -3.1752 C   0  0  0  0  0  0  0  0  0  0  0  0
   -0.9631   11.2659   -3.0558 C   0  0  0  0  0  0  0  0  0  0  0  0
   -1.6985   12.4155   -3.2029 O   0  0  0  0  0  0  0  0  0  0  0  0
    0.4103   11.4058   -2.7745 C   0  0  0  0  0  0  0  0  0  0  0  0
    0.9040   12.6816   -2.6707 O   0  0  0  0  0  0  0  0  0  0  0  0
    1.2006   10.2658   -2.6189 C   0  0  0  0  0  0  0  0  0  0  0  0
    2.0809    4.9082   -1.4881 C   0  0  0  0  0  0  0  0  0  0  0  0
    0.7328    4.2591   -1.2185 C   0  0  0  0  0  0  0  0  0  0  0  0
    0.5714    3.3566   -0.1545 C   0  0  0  0  0  0  0  0  0  0  0  0
   -0.6742    2.8091    0.1472 C   0  0  0  0  0  0  0  0  0  0  0  0
   -1.7723    3.1762   -0.6326 C   0  0  0  0  0  0  0  0  0  0  0  0
   -1.6494    4.0630   -1.7035 C   0  0  0  0  0  0  0  0  0  0  0  0
   -0.3938    4.5967   -1.9865 C   0  0  0  0  0  0  0  0  0  0  0  0
   -3.0924    2.6062   -0.3237 N   0  3  0  0  0  0  0  0  0  0  0  0
   -3.1716    1.8168    0.6245 O   0  5  0  0  0  0  0  0  0  0  0  0
   -4.0478    2.9499   -1.0294 O   0  0  0  0  0  0  0  0  0  0  0  0
    3.1639    5.1499    0.8957 H   0  0  0  0  0  0  0  0  0  0  0  0
    1.4908    5.6867    1.1859 H   0  0  0  0  0  0  0  0  0  0  0  0
    2.8201    6.8659    1.1587 H   0  0  0  0  0  0  0  0  0  0  0  0
    1.6792    8.0886   -0.3991 H   0  0  0  0  0  0  0  0  0  0  0  0
    0.3645    7.0100   -0.8392 H   0  0  0  0  0  0  0  0  0  0  0  0
    2.5825    7.9825   -2.7172 H   0  0  0  0  0  0  0  0  0  0  0  0
    1.2358    6.9699   -3.2131 H   0  0  0  0  0  0  0  0  0  0  0  0
   -1.1463    7.8625   -3.1173 H   0  0  0  0  0  0  0  0  0  0  0  0
   -2.5626    9.8732   -3.3965 H   0  0  0  0  0  0  0  0  0  0  0  0
   -2.6185   12.1711   -3.3903 H   0  0  0  0  0  0  0  0  0  0  0  0
    1.8546   12.6305   -2.4838 H   0  0  0  0  0  0  0  0  0  0  0  0
    2.2621   10.3872   -2.4020 H   0  0  0  0  0  0  0  0  0  0  0  0
    2.8825    4.2103   -1.2247 H   0  0  0  0  0  0  0  0  0  0  0  0
    2.1825    5.1151   -2.5565 H   0  0  0  0  0  0  0  0  0  0  0  0
    1.4345    3.0712    0.4411 H   0  0  0  0  0  0  0  0  0  0  0  0
   -0.8066    2.1089    0.9638 H   0  0  0  0  0  0  0  0  0  0  0  0
   -2.5229    4.3156   -2.2932 H   0  0  0  0  0  0  0  0  0  0  0  0
   -0.2865    5.2783   -2.8255 H   0  0  0  0  0  0  0  0  0  0  0  0
  1  2  1  0  0  0  0
  1 23  1  0  0  0  0
  1 24  1  0  0  0  0
  1 25  1  0  0  0  0
  2  3  1  0  0  0  0
  2 13  1  0  0  0  0
  3  4  1  0  0  0  0
  3 26  1  0  0  0  0
  3 27  1  0  0  0  0
  4  5  1  0  0  0  0
  4 28  1  0  0  0  0
  4 29  1  0  0  0  0
  5  6  1  0  0  0  0
  5 12  2  0  0  0  0
  6  7  2  0  0  0  0
  6 30  1  0  0  0  0
  7  8  1  0  0  0  0
  7 31  1  0  0  0  0
  8  9  1  0  0  0  0
  8 10  2  0  0  0  0
  9 32  1  0  0  0  0
 10 11  1  0  0  0  0
 10 12  1  0  0  0  0
 11 33  1  0  0  0  0
 12 34  1  0  0  0  0
 13 14  1  0  0  0  0
 13 35  1  0  0  0  0
 13 36  1  0  0  0  0
 14 15  1  0  0  0  0
 14 19  2  0  0  0  0
 15 16  2  0  0  0  0
 15 37  1  0  0  0  0
 16 17  1  0  0  0  0
 16 38  1  0  0  0  0
 17 18  2  0  0  0  0
 17 20  1  0  0  0  0
 18 19  1  0  0  0  0
 18 39  1  0  0  0  0
 19 40  1  0  0  0  0
 20 21  1  0  0  0  0
 20 22  2  0  0  0  0
M  CHG  2  20   1  21  -1
M  END
> <SMILES QCArchive>
[H]c1c(c(c(c(c1C([H])([H])N(C([H])([H])[H])C([H])([H])C([H])([H])c2c(c(c(c(c2[H])O[H])O[H])[H])[H])[H])[H])[N+](=O)[O-])[H]

> <Energy QCArchive>
-646977.064106292

> <Record QCArchive>
36954886

> <Compound Name>
BRI-00538-9

> <final_energy>
-646977.064106292

$$$$
