BRI-01356-06
  -OEChem-11282313333D

 43 44  0     0  0  0  0  0  0999 V2000
   -3.3082    4.2696   -0.7357 N   0  0  0  0  0  0  0  0  0  0  0  0
   -2.7045    3.9083    0.4531 C   0  0  0  0  0  0  0  0  0  0  0  0
   -3.3229    3.9233    1.5164 O   0  0  0  0  0  0  0  0  0  0  0  0
   -1.2763    3.4664    0.3705 C   0  0  0  0  0  0  0  0  0  0  0  0
   -0.5378    3.4160    1.5625 C   0  0  0  0  0  0  0  0  0  0  0  0
    0.7928    3.0193    1.5520 C   0  0  0  0  0  0  0  0  0  0  0  0
    1.4210    2.6483    0.3477 C   0  0  0  0  0  0  0  0  0  0  0  0
    2.7712    2.2547    0.4184 N   0  0  0  0  0  0  0  0  0  0  0  0
    3.6090    1.8292   -0.5953 C   0  0  0  0  0  0  0  0  0  0  0  0
    3.2924    1.7873   -1.7749 O   0  0  0  0  0  0  0  0  0  0  0  0
    4.9803    1.3669   -0.0692 C   0  0  0  0  0  0  0  0  0  0  0  0
    6.0088    1.4334   -1.0758 N   0  0  0  0  0  0  0  0  0  0  0  0
    6.2857    2.8171   -1.4968 C   0  0  0  0  0  0  0  0  0  0  0  0
    7.6340    2.9004   -2.2046 C   0  0  0  0  0  0  0  0  0  0  0  0
    8.7994    2.5587   -1.2459 C   0  0  0  0  0  0  0  0  0  0  0  0
    8.3485    1.5277   -0.1907 C   0  0  0  0  0  0  0  0  0  0  0  0
    7.2207    0.6573   -0.7574 C   0  0  0  0  0  0  0  0  0  0  0  0
    9.3367    3.7364   -0.5636 N   0  0  0  0  0  0  0  0  0  0  0  0
   10.1505    4.6205   -1.1960 C   0  0  0  0  0  0  0  0  0  0  0  0
   10.4332    5.6920   -0.3866 O   0  0  0  0  0  0  0  0  0  0  0  0
   10.5990    4.5036   -2.3278 O   0  0  0  0  0  0  0  0  0  0  0  0
    0.6866    2.6781   -0.8501 C   0  0  0  0  0  0  0  0  0  0  0  0
   -0.6473    3.0863   -0.8236 C   0  0  0  0  0  0  0  0  0  0  0  0
   -2.7407    4.6111   -1.5000 H   0  0  0  0  0  0  0  0  0  0  0  0
   -4.2175    4.7046   -0.6306 H   0  0  0  0  0  0  0  0  0  0  0  0
   -1.0298    3.6911    2.4899 H   0  0  0  0  0  0  0  0  0  0  0  0
    1.3541    2.9908    2.4845 H   0  0  0  0  0  0  0  0  0  0  0  0
    3.1737    2.2717    1.3476 H   0  0  0  0  0  0  0  0  0  0  0  0
    5.2252    1.9479    0.8467 H   0  0  0  0  0  0  0  0  0  0  0  0
    4.8482    0.3243    0.2441 H   0  0  0  0  0  0  0  0  0  0  0  0
    5.4798    3.1490   -2.1566 H   0  0  0  0  0  0  0  0  0  0  0  0
    6.2909    3.5038   -0.6259 H   0  0  0  0  0  0  0  0  0  0  0  0
    7.6372    2.2010   -3.0470 H   0  0  0  0  0  0  0  0  0  0  0  0
    7.7877    3.8972   -2.6243 H   0  0  0  0  0  0  0  0  0  0  0  0
    9.6202    2.1460   -1.8368 H   0  0  0  0  0  0  0  0  0  0  0  0
    7.9740    2.0464    0.7023 H   0  0  0  0  0  0  0  0  0  0  0  0
    9.1950    0.9148    0.1344 H   0  0  0  0  0  0  0  0  0  0  0  0
    6.9587   -0.1326   -0.0482 H   0  0  0  0  0  0  0  0  0  0  0  0
    7.5746    0.1506   -1.6645 H   0  0  0  0  0  0  0  0  0  0  0  0
    8.9738    4.0022    0.3422 H   0  0  0  0  0  0  0  0  0  0  0  0
   11.0270    6.2583   -0.9103 H   0  0  0  0  0  0  0  0  0  0  0  0
    1.1588    2.3802   -1.7756 H   0  0  0  0  0  0  0  0  0  0  0  0
   -1.2043    3.0678   -1.7564 H   0  0  0  0  0  0  0  0  0  0  0  0
  1  2  1  0  0  0  0
  1 24  1  0  0  0  0
  1 25  1  0  0  0  0
  2  3  2  0  0  0  0
  2  4  1  0  0  0  0
  4  5  1  0  0  0  0
  4 23  2  0  0  0  0
  5  6  2  0  0  0  0
  5 26  1  0  0  0  0
  6  7  1  0  0  0  0
  6 27  1  0  0  0  0
  7  8  1  0  0  0  0
  7 22  2  0  0  0  0
  8  9  1  0  0  0  0
  8 28  1  0  0  0  0
  9 10  2  0  0  0  0
  9 11  1  0  0  0  0
 11 12  1  0  0  0  0
 11 29  1  0  0  0  0
 11 30  1  0  0  0  0
 12 13  1  0  0  0  0
 12 17  1  0  0  0  0
 13 14  1  0  0  0  0
 13 31  1  0  0  0  0
 13 32  1  0  0  0  0
 14 15  1  0  0  0  0
 14 33  1  0  0  0  0
 14 34  1  0  0  0  0
 15 16  1  0  0  0  0
 15 18  1  0  0  0  0
 15 35  1  0  0  0  0
 16 17  1  0  0  0  0
 16 36  1  0  0  0  0
 16 37  1  0  0  0  0
 17 38  1  0  0  0  0
 17 39  1  0  0  0  0
 18 19  1  0  0  0  0
 18 40  1  0  0  0  0
 19 20  1  0  0  0  0
 19 21  2  0  0  0  0
 20 41  1  0  0  0  0
 22 23  1  0  0  0  0
 22 42  1  0  0  0  0
 23 43  1  0  0  0  0
M  END
> <SMILES QCArchive>
[H]c1c(c(c(c(c1C(=O)N([H])[H])[H])[H])N([H])C(=O)C([H])([H])N2C(C(C(C(C2([H])[H])([H])[H])([H])N([H])C(=O)O[H])([H])[H])([H])[H])[H]

> <Energy QCArchive>
-692652.5845992261

> <Record QCArchive>
36954834

> <Compound Name>
BRI-01356-6

> <final_energy>
-692652.5845992261

$$$$
