BRI-00505-01
  -OEChem-11282313333D

 34 36  0     0  0  0  0  0  0999 V2000
    4.2223    3.0935    0.2392 C   0  0  0  0  0  0  0  0  0  0  0  0
    2.9397    3.7418    0.0370 N   0  0  0  0  0  0  0  0  0  0  0  0
    2.7418    5.0910   -0.0499 C   0  0  0  0  0  0  0  0  0  0  0  0
    1.4741    5.3996   -0.2525 N   0  0  0  0  0  0  0  0  0  0  0  0
    0.7941    4.2033   -0.3060 C   0  0  0  0  0  0  0  0  0  0  0  0
   -0.6860    4.1593   -0.5292 C   0  0  0  0  0  0  0  0  0  0  0  0
    1.6865    3.1466   -0.1267 C   0  0  0  0  0  0  0  0  0  0  0  0
    1.4361    1.7200   -0.1051 C   0  0  0  0  0  0  0  0  0  0  0  0
    2.2358    0.6324    0.2145 C   0  0  0  0  0  0  0  0  0  0  0  0
    1.4292   -0.4590    0.0439 N   0  0  0  0  0  0  0  0  0  0  0  0
    0.1899   -0.0702   -0.3578 N   0  0  0  0  0  0  0  0  0  0  0  0
    0.1902    1.2250   -0.4472 N   0  0  0  0  0  0  0  0  0  0  0  0
    1.7287   -1.8317    0.2262 C   0  0  0  0  0  0  0  0  0  0  0  0
    2.8163   -2.2165    1.0216 C   0  0  0  0  0  0  0  0  0  0  0  0
    3.1051   -3.5713    1.1856 C   0  0  0  0  0  0  0  0  0  0  0  0
    2.3210   -4.5426    0.5606 C   0  0  0  0  0  0  0  0  0  0  0  0
    1.2292   -4.1511   -0.2306 C   0  0  0  0  0  0  0  0  0  0  0  0
    0.9250   -2.7956   -0.3883 C   0  0  0  0  0  0  0  0  0  0  0  0
    0.3278   -5.1419   -0.9137 C   0  0  0  0  0  0  0  0  0  0  0  0
    0.8705   -6.3603   -1.2039 O   0  0  0  0  0  0  0  0  0  0  0  0
   -0.8214   -4.9042   -1.2050 O   0  0  0  0  0  0  0  0  0  0  0  0
    4.4335    2.3864   -0.5686 H   0  0  0  0  0  0  0  0  0  0  0  0
    4.2541    2.5694    1.2001 H   0  0  0  0  0  0  0  0  0  0  0  0
    5.0019    3.8573    0.2402 H   0  0  0  0  0  0  0  0  0  0  0  0
    3.5598    5.7952    0.0420 H   0  0  0  0  0  0  0  0  0  0  0  0
   -0.9316    3.6987   -1.4911 H   0  0  0  0  0  0  0  0  0  0  0  0
   -1.1911    3.5647    0.2372 H   0  0  0  0  0  0  0  0  0  0  0  0
   -1.0763    5.1794   -0.5128 H   0  0  0  0  0  0  0  0  0  0  0  0
    3.2662    0.5416    0.5117 H   0  0  0  0  0  0  0  0  0  0  0  0
    3.4176   -1.4722    1.5333 H   0  0  0  0  0  0  0  0  0  0  0  0
    3.9349   -3.8685    1.8200 H   0  0  0  0  0  0  0  0  0  0  0  0
    2.5402   -5.5924    0.7392 H   0  0  0  0  0  0  0  0  0  0  0  0
    0.0701   -2.4988   -0.9842 H   0  0  0  0  0  0  0  0  0  0  0  0
    1.8312   -6.3441   -1.0585 H   0  0  0  0  0  0  0  0  0  0  0  0
  1  2  1  0  0  0  0
  1 22  1  0  0  0  0
  1 23  1  0  0  0  0
  1 24  1  0  0  0  0
  2  3  1  0  0  0  0
  2  7  1  0  0  0  0
  3  4  2  0  0  0  0
  3 25  1  0  0  0  0
  4  5  1  0  0  0  0
  5  6  1  0  0  0  0
  5  7  2  0  0  0  0
  6 26  1  0  0  0  0
  6 27  1  0  0  0  0
  6 28  1  0  0  0  0
  7  8  1  0  0  0  0
  8  9  2  0  0  0  0
  8 12  1  0  0  0  0
  9 10  1  0  0  0  0
  9 29  1  0  0  0  0
 10 11  1  0  0  0  0
 10 13  1  0  0  0  0
 11 12  2  0  0  0  0
 13 14  1  0  0  0  0
 13 18  2  0  0  0  0
 14 15  2  0  0  0  0
 14 30  1  0  0  0  0
 15 16  1  0  0  0  0
 15 31  1  0  0  0  0
 16 17  2  0  0  0  0
 16 32  1  0  0  0  0
 17 18  1  0  0  0  0
 17 19  1  0  0  0  0
 18 33  1  0  0  0  0
 19 20  1  0  0  0  0
 19 21  2  0  0  0  0
 20 34  1  0  0  0  0
M  END
> <SMILES QCArchive>
[H]c1c(c(c(c(c1[H])N2C(=C(N=N2)C3=C(N=C(N3C([H])([H])[H])[H])C([H])([H])[H])[H])[H])C(=O)O[H])[H]

> <Energy QCArchive>
-605967.5039470758

> <Record QCArchive>
36954931

> <Compound Name>
BRI-00505-1

> <final_energy>
-605967.5039470758

$$$$
