BRI-00226-06
  -OEChem-11282313333D

 60 63  0     1  0  0  0  0  0999 V2000
   -1.4464    3.0796    7.4690 O   0  0  0  0  0  0  0  0  0  0  0  0
   -1.5381    1.7445    7.1611 C   0  0  0  0  0  0  0  0  0  0  0  0
   -2.5979    1.1325    7.1991 O   0  0  0  0  0  0  0  0  0  0  0  0
   -0.3379    1.2201    6.8097 N   0  0  0  0  0  0  0  0  0  0  0  0
    0.9642    1.8777    7.0027 C   0  0  0  0  0  0  0  0  0  0  0  0
    1.9056    0.6943    7.2599 C   0  0  0  0  0  0  0  0  0  0  0  0
    1.3051   -0.4175    6.3889 C   0  0  0  0  0  0  0  0  0  0  0  0
   -0.2235   -0.2203    6.5223 C   0  0  2  0  0  0  0  0  0  0  0  0
   -0.6051   -0.7852    7.3804 H   0  0  0  0  0  0  0  0  0  0  0  0
   -0.9784   -0.6608    5.2850 C   0  0  0  0  0  0  0  0  0  0  0  0
   -1.0698    0.1680    4.1585 C   0  0  0  0  0  0  0  0  0  0  0  0
   -1.7065   -0.2813    3.0011 C   0  0  0  0  0  0  0  0  0  0  0  0
   -2.2683   -1.5604    2.9575 C   0  0  0  0  0  0  0  0  0  0  0  0
   -2.1917   -2.3944    4.0825 C   0  0  0  0  0  0  0  0  0  0  0  0
   -1.5363   -1.9376    5.2335 C   0  0  0  0  0  0  0  0  0  0  0  0
   -2.7563   -3.7867    4.1182 C   0  0  0  0  0  0  0  0  0  0  0  0
   -2.2742   -4.6585    4.8410 O   0  0  0  0  0  0  0  0  0  0  0  0
   -3.8449   -3.9861    3.2974 N   0  0  0  0  0  0  0  0  0  0  0  0
   -4.5920   -5.1655    3.0857 C   0  0  0  0  0  0  0  0  0  0  0  0
   -5.7237   -5.0710    2.2574 C   0  0  0  0  0  0  0  0  0  0  0  0
   -6.5039   -6.1944    1.9921 C   0  0  0  0  0  0  0  0  0  0  0  0
   -6.1819   -7.4457    2.5371 C   0  0  0  0  0  0  0  0  0  0  0  0
   -7.0596   -8.6517    2.2969 C   0  0  0  0  0  0  0  0  0  0  0  0
   -8.1448   -8.7753    3.3804 C   0  0  0  0  0  0  0  0  0  0  0  0
   -9.0972   -9.8570    3.1271 N   0  0  0  0  0  0  0  0  0  0  0  0
   -8.5049  -11.1854    3.3114 C   0  0  0  0  0  0  0  0  0  0  0  0
   -9.5391  -12.2689    3.0206 C   0  0  0  0  0  0  0  0  0  0  0  0
  -10.6935  -12.1317    3.8462 O   0  0  0  0  0  0  0  0  0  0  0  0
  -11.2779  -10.8420    3.6733 C   0  0  0  0  0  0  0  0  0  0  0  0
  -10.2802   -9.7311    3.9844 C   0  0  0  0  0  0  0  0  0  0  0  0
   -5.0506   -7.5233    3.3600 C   0  0  0  0  0  0  0  0  0  0  0  0
   -4.2552   -6.4105    3.6417 C   0  0  0  0  0  0  0  0  0  0  0  0
   -2.3542    3.3397    7.7070 H   0  0  0  0  0  0  0  0  0  0  0  0
    1.2541    2.4288    6.0987 H   0  0  0  0  0  0  0  0  0  0  0  0
    0.9167    2.5870    7.8299 H   0  0  0  0  0  0  0  0  0  0  0  0
    2.9442    0.9230    7.0064 H   0  0  0  0  0  0  0  0  0  0  0  0
    1.8663    0.4133    8.3178 H   0  0  0  0  0  0  0  0  0  0  0  0
    1.5979   -0.2793    5.3430 H   0  0  0  0  0  0  0  0  0  0  0  0
    1.6045   -1.4245    6.6881 H   0  0  0  0  0  0  0  0  0  0  0  0
   -0.6491    1.1697    4.1936 H   0  0  0  0  0  0  0  0  0  0  0  0
   -1.7616    0.3623    2.1271 H   0  0  0  0  0  0  0  0  0  0  0  0
   -2.7248   -1.9081    2.0339 H   0  0  0  0  0  0  0  0  0  0  0  0
   -1.4803   -2.6018    6.0914 H   0  0  0  0  0  0  0  0  0  0  0  0
   -4.2246   -3.1577    2.8587 H   0  0  0  0  0  0  0  0  0  0  0  0
   -5.9920   -4.1123    1.8163 H   0  0  0  0  0  0  0  0  0  0  0  0
   -7.3745   -6.0962    1.3470 H   0  0  0  0  0  0  0  0  0  0  0  0
   -7.5549   -8.5824    1.3227 H   0  0  0  0  0  0  0  0  0  0  0  0
   -6.4392   -9.5533    2.2788 H   0  0  0  0  0  0  0  0  0  0  0  0
   -7.6626   -8.8791    4.3712 H   0  0  0  0  0  0  0  0  0  0  0  0
   -8.7082   -7.8360    3.4061 H   0  0  0  0  0  0  0  0  0  0  0  0
   -7.6640  -11.3129    2.6230 H   0  0  0  0  0  0  0  0  0  0  0  0
   -8.1210  -11.3132    4.3421 H   0  0  0  0  0  0  0  0  0  0  0  0
   -9.1258  -13.2593    3.2292 H   0  0  0  0  0  0  0  0  0  0  0  0
   -9.8307  -12.2210    1.9599 H   0  0  0  0  0  0  0  0  0  0  0  0
  -12.1317  -10.7951    4.3546 H   0  0  0  0  0  0  0  0  0  0  0  0
  -11.6403  -10.7319    2.6395 H   0  0  0  0  0  0  0  0  0  0  0  0
  -10.0116   -9.7764    5.0572 H   0  0  0  0  0  0  0  0  0  0  0  0
  -10.7523   -8.7597    3.7982 H   0  0  0  0  0  0  0  0  0  0  0  0
   -4.7761   -8.4819    3.7961 H   0  0  0  0  0  0  0  0  0  0  0  0
   -3.3890   -6.4931    4.2832 H   0  0  0  0  0  0  0  0  0  0  0  0
  1  2  1  0  0  0  0
  1 33  1  0  0  0  0
  2  3  2  0  0  0  0
  2  4  1  0  0  0  0
  4  5  1  0  0  0  0
  4  8  1  0  0  0  0
  5  6  1  0  0  0  0
  5 34  1  0  0  0  0
  5 35  1  0  0  0  0
  6  7  1  0  0  0  0
  6 36  1  0  0  0  0
  6 37  1  0  0  0  0
  7  8  1  0  0  0  0
  7 38  1  0  0  0  0
  7 39  1  0  0  0  0
  8  9  1  0  0  0  0
  8 10  1  0  0  0  0
 10 11  1  0  0  0  0
 10 15  2  0  0  0  0
 11 12  2  0  0  0  0
 11 40  1  0  0  0  0
 12 13  1  0  0  0  0
 12 41  1  0  0  0  0
 13 14  2  0  0  0  0
 13 42  1  0  0  0  0
 14 15  1  0  0  0  0
 14 16  1  0  0  0  0
 15 43  1  0  0  0  0
 16 17  2  0  0  0  0
 16 18  1  0  0  0  0
 18 19  1  0  0  0  0
 18 44  1  0  0  0  0
 19 20  1  0  0  0  0
 19 32  2  0  0  0  0
 20 21  2  0  0  0  0
 20 45  1  0  0  0  0
 21 22  1  0  0  0  0
 21 46  1  0  0  0  0
 22 23  1  0  0  0  0
 22 31  2  0  0  0  0
 23 24  1  0  0  0  0
 23 47  1  0  0  0  0
 23 48  1  0  0  0  0
 24 25  1  0  0  0  0
 24 49  1  0  0  0  0
 24 50  1  0  0  0  0
 25 26  1  0  0  0  0
 25 30  1  0  0  0  0
 26 27  1  0  0  0  0
 26 51  1  0  0  0  0
 26 52  1  0  0  0  0
 27 28  1  0  0  0  0
 27 53  1  0  0  0  0
 27 54  1  0  0  0  0
 28 29  1  0  0  0  0
 29 30  1  0  0  0  0
 29 55  1  0  0  0  0
 29 56  1  0  0  0  0
 30 57  1  0  0  0  0
 30 58  1  0  0  0  0
 31 32  1  0  0  0  0
 31 59  1  0  0  0  0
 32 60  1  0  0  0  0
M  END
> <SMILES QCArchive>
[H]c1c(c(c(c(c1[H])[C@]2(C(C(C(N2C(=O)O[H])([H])[H])([H])[H])([H])[H])[H])[H])C(=O)N([H])c3c(c(c(c(c3[H])[H])C([H])([H])C([H])([H])N4C(C(OC(C4([H])[H])([H])[H])([H])[H])([H])[H])[H])[H])[H]

> <Energy QCArchive>
-876932.615309812

> <Record QCArchive>
36954852

> <Compound Name>
BRI-00226-6

> <final_energy>
-876932.615309812

$$$$
