BRI-01347-02
  -OEChem-11282313333D

 46 46  0     1  0  0  0  0  0999 V2000
   -7.3398   -0.4285   10.8233 C   0  0  0  0  0  0  0  0  0  0  0  0
   -8.0166   -0.3868    9.4487 C   0  0  0  0  0  0  0  0  0  0  0  0
   -7.1968    0.3933    8.4132 C   0  0  0  0  0  0  0  0  0  0  0  0
   -7.8778    0.4207    7.0555 C   0  0  0  0  0  0  0  0  0  0  0  0
   -7.0264    1.1775    6.1562 O   0  0  0  0  0  0  0  0  0  0  0  0
   -7.4740    1.2750    4.8951 C   0  0  0  0  0  0  0  0  0  0  0  0
   -8.5044    0.7957    4.4607 O   0  0  0  0  0  0  0  0  0  0  0  0
   -6.5833    1.9956    4.1915 O   0  0  0  0  0  0  0  0  0  0  0  0
   -6.9174    2.1850    2.7948 C   0  0  0  0  0  0  0  0  0  0  0  0
   -5.8032    3.0081    2.1706 C   0  0  0  0  0  0  0  0  0  0  0  0
   -6.0520    3.2437    0.6767 C   0  0  0  0  0  0  0  0  0  0  0  0
   -4.9684    4.0862    0.0113 C   0  0  2  0  0  0  0  0  0  0  0  0
   -5.2391    4.3685   -1.4617 C   0  0  0  0  0  0  0  0  0  0  0  0
   -3.7286    3.3240    0.1358 O   0  0  0  0  0  0  0  0  0  0  0  0
   -2.5722    4.0251    0.1572 C   0  0  0  0  0  0  0  0  0  0  0  0
   -2.5126    5.2411    0.0770 O   0  0  0  0  0  0  0  0  0  0  0  0
   -1.3806    3.1406    0.2952 C   0  0  0  0  0  0  0  0  0  0  0  0
   -1.4905    1.7451    0.3856 C   0  0  0  0  0  0  0  0  0  0  0  0
   -0.3485    0.9549    0.5160 C   0  0  0  0  0  0  0  0  0  0  0  0
    0.9048    1.5720    0.5552 C   0  0  0  0  0  0  0  0  0  0  0  0
    2.3433    0.5838    0.7189 Cl  0  0  0  0  0  0  0  0  0  0  0  0
    1.0343    2.9613    0.4665 C   0  0  0  0  0  0  0  0  0  0  0  0
   -0.1136    3.7404    0.3364 C   0  0  0  0  0  0  0  0  0  0  0  0
   -6.3559   -0.9075   10.7642 H   0  0  0  0  0  0  0  0  0  0  0  0
   -7.1933    0.5817   11.2219 H   0  0  0  0  0  0  0  0  0  0  0  0
   -7.9419   -0.9892   11.5459 H   0  0  0  0  0  0  0  0  0  0  0  0
   -9.0119    0.0663    9.5445 H   0  0  0  0  0  0  0  0  0  0  0  0
   -8.1794   -1.4115    9.0901 H   0  0  0  0  0  0  0  0  0  0  0  0
   -6.2031   -0.0578    8.3057 H   0  0  0  0  0  0  0  0  0  0  0  0
   -7.0413    1.4228    8.7572 H   0  0  0  0  0  0  0  0  0  0  0  0
   -8.8590    0.9031    7.1013 H   0  0  0  0  0  0  0  0  0  0  0  0
   -8.0153   -0.5855    6.6486 H   0  0  0  0  0  0  0  0  0  0  0  0
   -7.8862    2.6895    2.7264 H   0  0  0  0  0  0  0  0  0  0  0  0
   -7.0142    1.2050    2.3172 H   0  0  0  0  0  0  0  0  0  0  0  0
   -4.8498    2.4905    2.3124 H   0  0  0  0  0  0  0  0  0  0  0  0
   -5.7284    3.9681    2.6947 H   0  0  0  0  0  0  0  0  0  0  0  0
   -7.0088    3.7605    0.5321 H   0  0  0  0  0  0  0  0  0  0  0  0
   -6.1292    2.2848    0.1487 H   0  0  0  0  0  0  0  0  0  0  0  0
   -4.8304    5.0266    0.5513 H   0  0  0  0  0  0  0  0  0  0  0  0
   -5.3359    3.4330   -2.0221 H   0  0  0  0  0  0  0  0  0  0  0  0
   -6.1702    4.9346   -1.5692 H   0  0  0  0  0  0  0  0  0  0  0  0
   -4.4286    4.9597   -1.8942 H   0  0  0  0  0  0  0  0  0  0  0  0
   -2.4694    1.2799    0.3532 H   0  0  0  0  0  0  0  0  0  0  0  0
   -0.4249   -0.1253    0.5870 H   0  0  0  0  0  0  0  0  0  0  0  0
    2.0177    3.4193    0.4993 H   0  0  0  0  0  0  0  0  0  0  0  0
   -0.0432    4.8212    0.2659 H   0  0  0  0  0  0  0  0  0  0  0  0
  1  2  1  0  0  0  0
  1 24  1  0  0  0  0
  1 25  1  0  0  0  0
  1 26  1  0  0  0  0
  2  3  1  0  0  0  0
  2 27  1  0  0  0  0
  2 28  1  0  0  0  0
  3  4  1  0  0  0  0
  3 29  1  0  0  0  0
  3 30  1  0  0  0  0
  4  5  1  0  0  0  0
  4 31  1  0  0  0  0
  4 32  1  0  0  0  0
  5  6  1  0  0  0  0
  6  7  2  0  0  0  0
  6  8  1  0  0  0  0
  8  9  1  0  0  0  0
  9 10  1  0  0  0  0
  9 33  1  0  0  0  0
  9 34  1  0  0  0  0
 10 11  1  0  0  0  0
 10 35  1  0  0  0  0
 10 36  1  0  0  0  0
 11 12  1  0  0  0  0
 11 37  1  0  0  0  0
 11 38  1  0  0  0  0
 12 13  1  0  0  0  0
 12 14  1  0  0  0  0
 12 39  1  0  0  0  0
 13 40  1  0  0  0  0
 13 41  1  0  0  0  0
 13 42  1  0  0  0  0
 14 15  1  0  0  0  0
 15 16  2  0  0  0  0
 15 17  1  0  0  0  0
 17 18  1  0  0  0  0
 17 23  2  0  0  0  0
 18 19  2  0  0  0  0
 18 43  1  0  0  0  0
 19 20  1  0  0  0  0
 19 44  1  0  0  0  0
 20 21  1  0  0  0  0
 20 22  2  0  0  0  0
 22 23  1  0  0  0  0
 22 45  1  0  0  0  0
 23 46  1  0  0  0  0
M  END
> <SMILES QCArchive>
[H]c1c(c(c(c(c1C(=O)O[C@@]([H])(C([H])([H])[H])C([H])([H])C([H])([H])C([H])([H])OC(=O)OC([H])([H])C([H])([H])C([H])([H])C([H])([H])[H])[H])[H])Cl)[H]

> <Energy QCArchive>
-940139.4549751885

> <Record QCArchive>
36954922

> <Compound Name>
BRI-01347-2

> <final_energy>
-940139.4549751885

$$$$
