BRI-01068-03
  -OEChem-11282313333D

 42 43  0     1  0  0  0  0  0999 V2000
    0.5049   -2.0127   -5.7327 C   0  0  0  0  0  0  0  0  0  0  0  0
    1.7518   -1.1203   -5.9034 C   0  0  1  0  0  0  0  0  0  0  0  0
    2.4941   -1.4843   -7.1930 C   0  0  0  0  0  0  0  0  0  0  0  0
    3.7531   -0.6955   -7.4772 C   0  0  0  0  0  0  0  0  0  0  0  0
    4.2888   -0.1255   -6.3595 O   0  0  0  0  0  0  0  0  0  0  0  0
    4.2816   -0.5958   -8.5658 O   0  0  0  0  0  0  0  0  0  0  0  0
    1.3202    0.3499   -5.9284 C   0  0  0  0  0  0  0  0  0  0  0  0
    1.1929    0.9269   -7.0091 O   0  0  0  0  0  0  0  0  0  0  0  0
    1.0103    1.0411   -4.6543 C   0  0  0  0  0  0  0  0  0  0  0  0
    1.1936    0.4690   -3.3875 C   0  0  0  0  0  0  0  0  0  0  0  0
    0.8759    1.1733   -2.2259 C   0  0  0  0  0  0  0  0  0  0  0  0
    0.3605    2.4791   -2.2948 C   0  0  0  0  0  0  0  0  0  0  0  0
    0.0010    3.2212   -1.1900 N   0  0  0  0  0  0  0  0  0  0  0  0
    0.3965    2.8595    0.1595 C   0  0  0  0  0  0  0  0  0  0  0  0
   -0.3920    1.7006    0.7539 C   0  0  0  0  0  0  0  0  0  0  0  0
   -1.6739    1.3807    0.2925 C   0  0  0  0  0  0  0  0  0  0  0  0
   -2.3926    0.3304    0.8715 C   0  0  0  0  0  0  0  0  0  0  0  0
   -1.8382   -0.4103    1.9204 C   0  0  0  0  0  0  0  0  0  0  0  0
   -0.5560   -0.0965    2.3840 C   0  0  0  0  0  0  0  0  0  0  0  0
    0.1623    0.9509    1.7998 C   0  0  0  0  0  0  0  0  0  0  0  0
    0.1810    3.0548   -3.5812 C   0  0  0  0  0  0  0  0  0  0  0  0
   -0.3182    4.3452   -3.5839 O   0  0  0  0  0  0  0  0  0  0  0  0
    0.4985    2.3557   -4.7270 C   0  0  0  0  0  0  0  0  0  0  0  0
   -0.1851   -1.8718   -6.5710 H   0  0  0  0  0  0  0  0  0  0  0  0
    0.7923   -3.0691   -5.7015 H   0  0  0  0  0  0  0  0  0  0  0  0
   -0.0330   -1.7785   -4.8102 H   0  0  0  0  0  0  0  0  0  0  0  0
    2.4207   -1.2841   -5.0550 H   0  0  0  0  0  0  0  0  0  0  0  0
    1.8501   -1.3605   -8.0653 H   0  0  0  0  0  0  0  0  0  0  0  0
    2.7888   -2.5405   -7.1590 H   0  0  0  0  0  0  0  0  0  0  0  0
    5.0847    0.3540   -6.6593 H   0  0  0  0  0  0  0  0  0  0  0  0
    1.5896   -0.5355   -3.2857 H   0  0  0  0  0  0  0  0  0  0  0  0
    1.0105    0.7005   -1.2598 H   0  0  0  0  0  0  0  0  0  0  0  0
   -0.1799    4.1981   -1.3761 H   0  0  0  0  0  0  0  0  0  0  0  0
    0.2460    3.7467    0.7836 H   0  0  0  0  0  0  0  0  0  0  0  0
    1.4703    2.6244    0.2028 H   0  0  0  0  0  0  0  0  0  0  0  0
   -2.0962    1.9475   -0.5320 H   0  0  0  0  0  0  0  0  0  0  0  0
   -3.3848    0.0873    0.4995 H   0  0  0  0  0  0  0  0  0  0  0  0
   -2.3964   -1.2286    2.3679 H   0  0  0  0  0  0  0  0  0  0  0  0
   -0.1133   -0.6705    3.1941 H   0  0  0  0  0  0  0  0  0  0  0  0
    1.1642    1.1825    2.1574 H   0  0  0  0  0  0  0  0  0  0  0  0
   -0.3742    4.6599   -4.5001 H   0  0  0  0  0  0  0  0  0  0  0  0
    0.3646    2.7995   -5.7113 H   0  0  0  0  0  0  0  0  0  0  0  0
  1  2  1  0  0  0  0
  1 24  1  0  0  0  0
  1 25  1  0  0  0  0
  1 26  1  0  0  0  0
  2  3  1  0  0  0  0
  2  7  1  0  0  0  0
  2 27  1  0  0  0  0
  3  4  1  0  0  0  0
  3 28  1  0  0  0  0
  3 29  1  0  0  0  0
  4  5  1  0  0  0  0
  4  6  2  0  0  0  0
  5 30  1  0  0  0  0
  7  8  2  0  0  0  0
  7  9  1  0  0  0  0
  9 10  1  0  0  0  0
  9 23  2  0  0  0  0
 10 11  2  0  0  0  0
 10 31  1  0  0  0  0
 11 12  1  0  0  0  0
 11 32  1  0  0  0  0
 12 13  1  0  0  0  0
 12 21  2  0  0  0  0
 13 14  1  0  0  0  0
 13 33  1  0  0  0  0
 14 15  1  0  0  0  0
 14 34  1  0  0  0  0
 14 35  1  0  0  0  0
 15 16  1  0  0  0  0
 15 20  2  0  0  0  0
 16 17  2  0  0  0  0
 16 36  1  0  0  0  0
 17 18  1  0  0  0  0
 17 37  1  0  0  0  0
 18 19  2  0  0  0  0
 18 38  1  0  0  0  0
 19 20  1  0  0  0  0
 19 39  1  0  0  0  0
 20 40  1  0  0  0  0
 21 22  1  0  0  0  0
 21 23  1  0  0  0  0
 22 41  1  0  0  0  0
 23 42  1  0  0  0  0
M  END
> <SMILES QCArchive>
[H]c1c(c(c(c(c1[H])[H])C([H])([H])N([H])c2c(c(c(c(c2O[H])[H])C(=O)[C@@]([H])(C([H])([H])[H])C([H])([H])C(=O)O[H])[H])[H])[H])[H]

> <Energy QCArchive>
-660914.5823659988

> <Record QCArchive>
36954841

> <Compound Name>
BRI-01068-3

> <final_energy>
-660914.5823659988

$$$$
