BRI-01064-00
  -OEChem-11282313333D

 57 58  0     1  0  0  0  0  0999 V2000
    0.6628    1.4501    1.8501 C   0  0  0  0  0  0  0  0  0  0  0  0
   -0.1745    0.4997    0.9878 C   0  0  0  0  0  0  0  0  0  0  0  0
    0.1417    0.6502   -0.5039 C   0  0  0  0  0  0  0  0  0  0  0  0
   -0.7385   -0.1827   -1.4589 C   0  0  1  0  0  0  0  0  0  0  0  0
   -0.3917    0.0179   -2.4830 H   0  0  0  0  0  0  0  0  0  0  0  0
   -0.4826   -1.6931   -1.2168 C   0  0  0  0  0  0  0  0  0  0  0  0
    0.9988   -1.9996   -1.2373 C   0  0  0  0  0  0  0  0  0  0  0  0
    1.7119   -1.8908   -2.2179 O   0  0  0  0  0  0  0  0  0  0  0  0
    1.4424   -2.4150   -0.0255 O   0  0  0  0  0  0  0  0  0  0  0  0
    2.8665   -2.6772    0.0885 C   0  0  0  0  0  0  0  0  0  0  0  0
    3.6418   -1.3927    0.3462 C   0  0  0  0  0  0  0  0  0  0  0  0
   -2.1777    0.1553   -1.3172 N   0  0  2  0  0  0  0  0  0  0  0  0
   -3.0925   -0.8722   -1.8415 C   0  0  0  0  0  0  0  0  0  0  0  0
   -4.5308   -0.6477   -1.4180 C   0  0  0  0  0  0  0  0  0  0  0  0
   -5.5784   -0.7675   -2.3384 C   0  0  0  0  0  0  0  0  0  0  0  0
   -6.9088   -0.6021   -1.9354 C   0  0  0  0  0  0  0  0  0  0  0  0
   -7.2044   -0.3095   -0.6014 C   0  0  0  0  0  0  0  0  0  0  0  0
   -6.1615   -0.1873    0.3261 C   0  0  0  0  0  0  0  0  0  0  0  0
   -4.8367   -0.3568   -0.0795 C   0  0  0  0  0  0  0  0  0  0  0  0
   -2.5891    1.5079   -1.8199 C   0  0  1  0  0  0  0  0  0  0  0  0
   -3.6722    1.4259   -1.9149 H   0  0  0  0  0  0  0  0  0  0  0  0
   -2.3967    2.6394   -0.8000 C   0  0  0  0  0  0  0  0  0  0  0  0
   -2.0825    1.8363   -3.2198 C   0  0  0  0  0  0  0  0  0  0  0  0
   -2.8706    1.4891   -4.3292 C   0  0  0  0  0  0  0  0  0  0  0  0
   -2.4315    1.7260   -5.6351 C   0  0  0  0  0  0  0  0  0  0  0  0
   -1.1871    2.3230   -5.8575 C   0  0  0  0  0  0  0  0  0  0  0  0
   -0.3963    2.6871   -4.7631 C   0  0  0  0  0  0  0  0  0  0  0  0
   -0.8421    2.4478   -3.4606 C   0  0  0  0  0  0  0  0  0  0  0  0
    1.7359    1.2743    1.7075 H   0  0  0  0  0  0  0  0  0  0  0  0
    0.4641    2.4973    1.5927 H   0  0  0  0  0  0  0  0  0  0  0  0
    0.4434    1.3225    2.9158 H   0  0  0  0  0  0  0  0  0  0  0  0
   -1.2402    0.6880    1.1491 H   0  0  0  0  0  0  0  0  0  0  0  0
    0.0130   -0.5322    1.3036 H   0  0  0  0  0  0  0  0  0  0  0  0
    0.0815    1.7034   -0.7786 H   0  0  0  0  0  0  0  0  0  0  0  0
    1.1877    0.3787   -0.6870 H   0  0  0  0  0  0  0  0  0  0  0  0
   -0.9146   -2.0199   -0.2692 H   0  0  0  0  0  0  0  0  0  0  0  0
   -0.9152   -2.2833   -2.0275 H   0  0  0  0  0  0  0  0  0  0  0  0
    3.2096   -3.1737   -0.8214 H   0  0  0  0  0  0  0  0  0  0  0  0
    2.9452   -3.3671    0.9312 H   0  0  0  0  0  0  0  0  0  0  0  0
    3.2560   -0.8787    1.2318 H   0  0  0  0  0  0  0  0  0  0  0  0
    3.5757   -0.7203   -0.5125 H   0  0  0  0  0  0  0  0  0  0  0  0
    4.6981   -1.6277    0.5168 H   0  0  0  0  0  0  0  0  0  0  0  0
   -3.0425   -0.9715   -2.9396 H   0  0  0  0  0  0  0  0  0  0  0  0
   -2.7978   -1.8379   -1.4314 H   0  0  0  0  0  0  0  0  0  0  0  0
   -5.3537   -0.9915   -3.3795 H   0  0  0  0  0  0  0  0  0  0  0  0
   -7.7107   -0.6961   -2.6635 H   0  0  0  0  0  0  0  0  0  0  0  0
   -8.2360   -0.1755   -0.2860 H   0  0  0  0  0  0  0  0  0  0  0  0
   -6.3844    0.0399    1.3659 H   0  0  0  0  0  0  0  0  0  0  0  0
   -4.0219   -0.2505    0.6316 H   0  0  0  0  0  0  0  0  0  0  0  0
   -1.3626    2.9488   -0.6497 H   0  0  0  0  0  0  0  0  0  0  0  0
   -2.8019    2.3282    0.1665 H   0  0  0  0  0  0  0  0  0  0  0  0
   -2.9522    3.5196   -1.1406 H   0  0  0  0  0  0  0  0  0  0  0  0
   -3.8496    1.0445   -4.1665 H   0  0  0  0  0  0  0  0  0  0  0  0
   -3.0629    1.4517   -6.4767 H   0  0  0  0  0  0  0  0  0  0  0  0
   -0.8406    2.5095   -6.8707 H   0  0  0  0  0  0  0  0  0  0  0  0
    0.5701    3.1587   -4.9234 H   0  0  0  0  0  0  0  0  0  0  0  0
   -0.2122    2.7474   -2.6287 H   0  0  0  0  0  0  0  0  0  0  0  0
  1  2  1  0  0  0  0
  1 29  1  0  0  0  0
  1 30  1  0  0  0  0
  1 31  1  0  0  0  0
  2  3  1  0  0  0  0
  2 32  1  0  0  0  0
  2 33  1  0  0  0  0
  3  4  1  0  0  0  0
  3 34  1  0  0  0  0
  3 35  1  0  0  0  0
  4  5  1  0  0  0  0
  4  6  1  0  0  0  0
  4 12  1  0  0  0  0
  6  7  1  0  0  0  0
  6 36  1  0  0  0  0
  6 37  1  0  0  0  0
  7  8  2  0  0  0  0
  7  9  1  0  0  0  0
  9 10  1  0  0  0  0
 10 11  1  0  0  0  0
 10 38  1  0  0  0  0
 10 39  1  0  0  0  0
 11 40  1  0  0  0  0
 11 41  1  0  0  0  0
 11 42  1  0  0  0  0
 12 13  1  0  0  0  0
 12 20  1  0  0  0  0
 13 14  1  0  0  0  0
 13 43  1  0  0  0  0
 13 44  1  0  0  0  0
 14 15  1  0  0  0  0
 14 19  2  0  0  0  0
 15 16  2  0  0  0  0
 15 45  1  0  0  0  0
 16 17  1  0  0  0  0
 16 46  1  0  0  0  0
 17 18  2  0  0  0  0
 17 47  1  0  0  0  0
 18 19  1  0  0  0  0
 18 48  1  0  0  0  0
 19 49  1  0  0  0  0
 20 21  1  0  0  0  0
 20 22  1  0  0  0  0
 20 23  1  0  0  0  0
 22 50  1  0  0  0  0
 22 51  1  0  0  0  0
 22 52  1  0  0  0  0
 23 24  1  0  0  0  0
 23 28  2  0  0  0  0
 24 25  2  0  0  0  0
 24 53  1  0  0  0  0
 25 26  1  0  0  0  0
 25 54  1  0  0  0  0
 26 27  2  0  0  0  0
 26 55  1  0  0  0  0
 27 28  1  0  0  0  0
 27 56  1  0  0  0  0
 28 57  1  0  0  0  0
M  END
> <SMILES QCArchive>
[H]c1c(c(c(c(c1[H])[H])[C@]([H])(C([H])([H])[H])N([C@]([H])(C([H])([H])C(=O)OC([H])([H])C([H])([H])[H])C([H])([H])C([H])([H])C([H])([H])[H])C([H])([H])c2c(c(c(c(c2[H])[H])[H])[H])[H])[H])[H]

> <Energy QCArchive>
-690600.3756232619

> <Record QCArchive>
36954887

> <Compound Name>
BRI-01064-0

> <final_energy>
-690600.3756232619

$$$$
