BRI-00538-08
  -OEChem-11282313333D

 40 41  0     1  0  0  0  0  0999 V2000
    1.2056    5.3914   -2.7604 C   0  0  0  0  0  0  0  0  0  0  0  0
    0.1687    6.0265   -1.9524 N   0  0  2  0  0  0  0  0  0  0  0  0
    0.0157    7.4590   -2.2021 C   0  0  0  0  0  0  0  0  0  0  0  0
    1.2047    8.3709   -1.8080 C   0  0  0  0  0  0  0  0  0  0  0  0
    0.9155    9.8139   -2.1445 C   0  0  0  0  0  0  0  0  0  0  0  0
    0.3245   10.6732   -1.2145 C   0  0  0  0  0  0  0  0  0  0  0  0
    0.0037   11.9908   -1.5645 C   0  0  0  0  0  0  0  0  0  0  0  0
    0.2621   12.4762   -2.8463 C   0  0  0  0  0  0  0  0  0  0  0  0
   -0.0262   13.7574   -3.2462 O   0  0  0  0  0  0  0  0  0  0  0  0
    0.8570   11.6194   -3.7941 C   0  0  0  0  0  0  0  0  0  0  0  0
    1.1008   12.1357   -5.0416 O   0  0  0  0  0  0  0  0  0  0  0  0
    1.1720   10.3089   -3.4342 C   0  0  0  0  0  0  0  0  0  0  0  0
    0.2750    5.6815   -0.5401 C   0  0  0  0  0  0  0  0  0  0  0  0
   -0.1092    4.2395   -0.2633 C   0  0  0  0  0  0  0  0  0  0  0  0
    0.5710    3.4924    0.7077 C   0  0  0  0  0  0  0  0  0  0  0  0
    0.1996    2.1784    0.9935 C   0  0  0  0  0  0  0  0  0  0  0  0
   -0.8642    1.6169    0.2866 C   0  0  0  0  0  0  0  0  0  0  0  0
   -1.5593    2.3353   -0.6901 C   0  0  0  0  0  0  0  0  0  0  0  0
   -1.1746    3.6463   -0.9584 C   0  0  0  0  0  0  0  0  0  0  0  0
   -1.2596    0.2296    0.5713 N   0  3  0  0  0  0  0  0  0  0  0  0
   -2.2025   -0.2447   -0.0729 O   0  5  0  0  0  0  0  0  0  0  0  0
   -0.6271   -0.3850    1.4384 O   0  0  0  0  0  0  0  0  0  0  0  0
    1.0592    5.6538   -3.8126 H   0  0  0  0  0  0  0  0  0  0  0  0
    2.2317    5.6794   -2.4706 H   0  0  0  0  0  0  0  0  0  0  0  0
    1.1286    4.3037   -2.6719 H   0  0  0  0  0  0  0  0  0  0  0  0
   -0.1890    7.5915   -3.2707 H   0  0  0  0  0  0  0  0  0  0  0  0
   -0.8797    7.8027   -1.6710 H   0  0  0  0  0  0  0  0  0  0  0  0
    2.1096    8.0385   -2.3281 H   0  0  0  0  0  0  0  0  0  0  0  0
    1.4003    8.2740   -0.7347 H   0  0  0  0  0  0  0  0  0  0  0  0
    0.1146   10.3222   -0.2070 H   0  0  0  0  0  0  0  0  0  0  0  0
   -0.4509   12.6523   -0.8282 H   0  0  0  0  0  0  0  0  0  0  0  0
   -0.4258   14.2306   -2.4995 H   0  0  0  0  0  0  0  0  0  0  0  0
    1.5141   11.4469   -5.5855 H   0  0  0  0  0  0  0  0  0  0  0  0
    1.6350    9.6575   -4.1762 H   0  0  0  0  0  0  0  0  0  0  0  0
   -0.4122    6.3318    0.0162 H   0  0  0  0  0  0  0  0  0  0  0  0
    1.2827    5.8665   -0.1265 H   0  0  0  0  0  0  0  0  0  0  0  0
    1.4053    3.9385    1.2436 H   0  0  0  0  0  0  0  0  0  0  0  0
    0.7194    1.5885    1.7393 H   0  0  0  0  0  0  0  0  0  0  0  0
   -2.3787    1.8629   -1.2194 H   0  0  0  0  0  0  0  0  0  0  0  0
   -1.6838    4.2246   -1.7232 H   0  0  0  0  0  0  0  0  0  0  0  0
  1  2  1  0  0  0  0
  1 23  1  0  0  0  0
  1 24  1  0  0  0  0
  1 25  1  0  0  0  0
  2  3  1  0  0  0  0
  2 13  1  0  0  0  0
  3  4  1  0  0  0  0
  3 26  1  0  0  0  0
  3 27  1  0  0  0  0
  4  5  1  0  0  0  0
  4 28  1  0  0  0  0
  4 29  1  0  0  0  0
  5  6  1  0  0  0  0
  5 12  2  0  0  0  0
  6  7  2  0  0  0  0
  6 30  1  0  0  0  0
  7  8  1  0  0  0  0
  7 31  1  0  0  0  0
  8  9  1  0  0  0  0
  8 10  2  0  0  0  0
  9 32  1  0  0  0  0
 10 11  1  0  0  0  0
 10 12  1  0  0  0  0
 11 33  1  0  0  0  0
 12 34  1  0  0  0  0
 13 14  1  0  0  0  0
 13 35  1  0  0  0  0
 13 36  1  0  0  0  0
 14 15  1  0  0  0  0
 14 19  2  0  0  0  0
 15 16  2  0  0  0  0
 15 37  1  0  0  0  0
 16 17  1  0  0  0  0
 16 38  1  0  0  0  0
 17 18  2  0  0  0  0
 17 20  1  0  0  0  0
 18 19  1  0  0  0  0
 18 39  1  0  0  0  0
 19 40  1  0  0  0  0
 20 21  1  0  0  0  0
 20 22  2  0  0  0  0
M  CHG  2  20   1  21  -1
M  END
> <SMILES QCArchive>
[H]c1c(c(c(c(c1C([H])([H])N(C([H])([H])[H])C([H])([H])C([H])([H])c2c(c(c(c(c2[H])O[H])O[H])[H])[H])[H])[H])[N+](=O)[O-])[H]

> <Energy QCArchive>
-646977.5266982975

> <Record QCArchive>
36954885

> <Compound Name>
BRI-00538-8

> <final_energy>
-646977.5266982975

$$$$
