BRI-01068-01
  -OEChem-11282313333D

 42 43  0     1  0  0  0  0  0999 V2000
    0.6731   -1.1534   -8.0605 C   0  0  0  0  0  0  0  0  0  0  0  0
    1.9536   -1.0309   -7.2134 C   0  0  1  0  0  0  0  0  0  0  0  0
    2.4803    0.4113   -7.2045 C   0  0  0  0  0  0  0  0  0  0  0  0
    3.6820    0.6125   -6.3094 C   0  0  0  0  0  0  0  0  0  0  0  0
    3.9055    1.9325   -6.0598 O   0  0  0  0  0  0  0  0  0  0  0  0
    4.3969   -0.2637   -5.8682 O   0  0  0  0  0  0  0  0  0  0  0  0
    1.7521   -1.6869   -5.8356 C   0  0  0  0  0  0  0  0  0  0  0  0
    2.0183   -2.8799   -5.7248 O   0  0  0  0  0  0  0  0  0  0  0  0
    1.2534   -0.9155   -4.6641 C   0  0  0  0  0  0  0  0  0  0  0  0
    1.6077   -1.3632   -3.3843 C   0  0  0  0  0  0  0  0  0  0  0  0
    1.1809   -0.6932   -2.2404 C   0  0  0  0  0  0  0  0  0  0  0  0
    0.3640    0.4488   -2.3324 C   0  0  0  0  0  0  0  0  0  0  0  0
   -0.0635    1.1794   -1.2418 N   0  0  0  0  0  0  0  0  0  0  0  0
    0.0145    0.6486    0.1146 C   0  0  0  0  0  0  0  0  0  0  0  0
   -0.5676    1.6341    1.1030 C   0  0  0  0  0  0  0  0  0  0  0  0
   -0.0461    2.9344    1.1925 C   0  0  0  0  0  0  0  0  0  0  0  0
   -0.5764    3.8499    2.1040 C   0  0  0  0  0  0  0  0  0  0  0  0
   -1.6345    3.4757    2.9418 C   0  0  0  0  0  0  0  0  0  0  0  0
   -2.1591    2.1833    2.8583 C   0  0  0  0  0  0  0  0  0  0  0  0
   -1.6287    1.2695    1.9401 C   0  0  0  0  0  0  0  0  0  0  0  0
   -0.0177    0.8801   -3.6278 C   0  0  0  0  0  0  0  0  0  0  0  0
   -0.8596    1.9781   -3.6611 O   0  0  0  0  0  0  0  0  0  0  0  0
    0.4241    0.2228   -4.7639 C   0  0  0  0  0  0  0  0  0  0  0  0
    0.3475   -2.1961   -8.1046 H   0  0  0  0  0  0  0  0  0  0  0  0
   -0.1516   -0.5598   -7.6524 H   0  0  0  0  0  0  0  0  0  0  0  0
    0.8569   -0.8098   -9.0845 H   0  0  0  0  0  0  0  0  0  0  0  0
    2.7178   -1.6625   -7.6736 H   0  0  0  0  0  0  0  0  0  0  0  0
    2.7979    0.6795   -8.2206 H   0  0  0  0  0  0  0  0  0  0  0  0
    1.7229    1.1477   -6.9311 H   0  0  0  0  0  0  0  0  0  0  0  0
    4.7005    1.9704   -5.4935 H   0  0  0  0  0  0  0  0  0  0  0  0
    2.2344   -2.2451   -3.3025 H   0  0  0  0  0  0  0  0  0  0  0  0
    1.4822   -1.0604   -1.2652 H   0  0  0  0  0  0  0  0  0  0  0  0
   -0.8485    1.7933   -1.4253 H   0  0  0  0  0  0  0  0  0  0  0  0
   -0.5028   -0.3190    0.1995 H   0  0  0  0  0  0  0  0  0  0  0  0
    1.0692    0.4675    0.3572 H   0  0  0  0  0  0  0  0  0  0  0  0
    0.7743    3.2249    0.5408 H   0  0  0  0  0  0  0  0  0  0  0  0
   -0.1638    4.8537    2.1648 H   0  0  0  0  0  0  0  0  0  0  0  0
   -2.0461    4.1876    3.6526 H   0  0  0  0  0  0  0  0  0  0  0  0
   -2.9823    1.8861    3.5029 H   0  0  0  0  0  0  0  0  0  0  0  0
   -2.0448    0.2665    1.8743 H   0  0  0  0  0  0  0  0  0  0  0  0
   -1.0829    2.1829   -4.5823 H   0  0  0  0  0  0  0  0  0  0  0  0
    0.0810    0.5775   -5.7318 H   0  0  0  0  0  0  0  0  0  0  0  0
  1  2  1  0  0  0  0
  1 24  1  0  0  0  0
  1 25  1  0  0  0  0
  1 26  1  0  0  0  0
  2  3  1  0  0  0  0
  2  7  1  0  0  0  0
  2 27  1  0  0  0  0
  3  4  1  0  0  0  0
  3 28  1  0  0  0  0
  3 29  1  0  0  0  0
  4  5  1  0  0  0  0
  4  6  2  0  0  0  0
  5 30  1  0  0  0  0
  7  8  2  0  0  0  0
  7  9  1  0  0  0  0
  9 10  1  0  0  0  0
  9 23  2  0  0  0  0
 10 11  2  0  0  0  0
 10 31  1  0  0  0  0
 11 12  1  0  0  0  0
 11 32  1  0  0  0  0
 12 13  1  0  0  0  0
 12 21  2  0  0  0  0
 13 14  1  0  0  0  0
 13 33  1  0  0  0  0
 14 15  1  0  0  0  0
 14 34  1  0  0  0  0
 14 35  1  0  0  0  0
 15 16  1  0  0  0  0
 15 20  2  0  0  0  0
 16 17  2  0  0  0  0
 16 36  1  0  0  0  0
 17 18  1  0  0  0  0
 17 37  1  0  0  0  0
 18 19  2  0  0  0  0
 18 38  1  0  0  0  0
 19 20  1  0  0  0  0
 19 39  1  0  0  0  0
 20 40  1  0  0  0  0
 21 22  1  0  0  0  0
 21 23  1  0  0  0  0
 22 41  1  0  0  0  0
 23 42  1  0  0  0  0
M  END
> <SMILES QCArchive>
[H]c1c(c(c(c(c1[H])[H])C([H])([H])N([H])c2c(c(c(c(c2O[H])[H])C(=O)[C@@]([H])(C([H])([H])[H])C([H])([H])C(=O)O[H])[H])[H])[H])[H]

> <Energy QCArchive>
-660908.6132630302

> <Record QCArchive>
36954839

> <Compound Name>
BRI-01068-1

> <final_energy>
-660908.6132630302

$$$$
