BRI-01081-02
  -OEChem-11282313333D

 39 42  0     0  0  0  0  0  0999 V2000
   -2.7060    2.6584   -2.1865 O   0  0  0  0  0  0  0  0  0  0  0  0
   -1.2525    2.6891   -2.3138 S   0  0  0  0  0  0  0  0  0  0  0  0
   -0.4740    1.5259   -2.7239 O   0  0  0  0  0  0  0  0  0  0  0  0
   -0.9304    3.9216   -3.4741 N   0  0  0  0  0  0  0  0  0  0  0  0
   -1.7047    5.1003   -3.4479 C   0  0  0  0  0  0  0  0  0  0  0  0
   -0.9529    6.1718   -3.8446 C   0  0  0  0  0  0  0  0  0  0  0  0
    0.3924    5.6723   -4.1045 C   0  0  0  0  0  0  0  0  0  0  0  0
    0.3881    4.2792   -3.8453 C   0  0  0  0  0  0  0  0  0  0  0  0
    1.5196    3.4796   -4.0169 C   0  0  0  0  0  0  0  0  0  0  0  0
    2.6863    4.1102   -4.4530 C   0  0  0  0  0  0  0  0  0  0  0  0
    2.7090    5.4894   -4.7377 C   0  0  0  0  0  0  0  0  0  0  0  0
    1.5688    6.2755   -4.5780 C   0  0  0  0  0  0  0  0  0  0  0  0
   -1.4361    7.5533   -3.9923 C   0  0  0  0  0  0  0  0  0  0  0  0
   -2.7142    7.8167   -4.5169 C   0  0  0  0  0  0  0  0  0  0  0  0
   -3.1850    9.1266   -4.6273 C   0  0  0  0  0  0  0  0  0  0  0  0
   -2.3831   10.2001   -4.2246 C   0  0  0  0  0  0  0  0  0  0  0  0
   -1.1083    9.9503   -3.7051 C   0  0  0  0  0  0  0  0  0  0  0  0
   -0.6390    8.6402   -3.5891 C   0  0  0  0  0  0  0  0  0  0  0  0
   -0.5412    3.3676   -0.8206 C   0  0  0  0  0  0  0  0  0  0  0  0
   -1.3054    4.2500   -0.0522 C   0  0  0  0  0  0  0  0  0  0  0  0
   -0.7235    4.8312    1.0759 C   0  0  0  0  0  0  0  0  0  0  0  0
    0.5996    4.5285    1.4183 C   0  0  0  0  0  0  0  0  0  0  0  0
    1.3472    3.6388    0.6392 C   0  0  0  0  0  0  0  0  0  0  0  0
    0.7790    3.0495   -0.4925 C   0  0  0  0  0  0  0  0  0  0  0  0
   -2.7407    5.0450   -3.1456 H   0  0  0  0  0  0  0  0  0  0  0  0
    1.4823    2.4108   -3.8402 H   0  0  0  0  0  0  0  0  0  0  0  0
    3.5864    3.5187   -4.5969 H   0  0  0  0  0  0  0  0  0  0  0  0
    3.6274    5.9433   -5.1002 H   0  0  0  0  0  0  0  0  0  0  0  0
    1.5872    7.3315   -4.8292 H   0  0  0  0  0  0  0  0  0  0  0  0
   -3.3296    6.9889   -4.8595 H   0  0  0  0  0  0  0  0  0  0  0  0
   -4.1741    9.3105   -5.0392 H   0  0  0  0  0  0  0  0  0  0  0  0
   -2.7468   11.2201   -4.3166 H   0  0  0  0  0  0  0  0  0  0  0  0
   -0.4808   10.7772   -3.3820 H   0  0  0  0  0  0  0  0  0  0  0  0
    0.3383    8.4550   -3.1529 H   0  0  0  0  0  0  0  0  0  0  0  0
   -2.3337    4.4619   -0.3262 H   0  0  0  0  0  0  0  0  0  0  0  0
   -1.3034    5.5162    1.6878 H   0  0  0  0  0  0  0  0  0  0  0  0
    1.0473    4.9840    2.2975 H   0  0  0  0  0  0  0  0  0  0  0  0
    2.3716    3.4013    0.9117 H   0  0  0  0  0  0  0  0  0  0  0  0
    1.3387    2.3508   -1.1044 H   0  0  0  0  0  0  0  0  0  0  0  0
  1  2  2  0  0  0  0
  2  3  2  0  0  0  0
  2  4  1  0  0  0  0
  2 19  1  0  0  0  0
  4  5  1  0  0  0  0
  4  8  1  0  0  0  0
  5  6  2  0  0  0  0
  5 25  1  0  0  0  0
  6  7  1  0  0  0  0
  6 13  1  0  0  0  0
  7  8  1  0  0  0  0
  7 12  2  0  0  0  0
  8  9  2  0  0  0  0
  9 10  1  0  0  0  0
  9 26  1  0  0  0  0
 10 11  2  0  0  0  0
 10 27  1  0  0  0  0
 11 12  1  0  0  0  0
 11 28  1  0  0  0  0
 12 29  1  0  0  0  0
 13 14  1  0  0  0  0
 13 18  2  0  0  0  0
 14 15  2  0  0  0  0
 14 30  1  0  0  0  0
 15 16  1  0  0  0  0
 15 31  1  0  0  0  0
 16 17  2  0  0  0  0
 16 32  1  0  0  0  0
 17 18  1  0  0  0  0
 17 33  1  0  0  0  0
 18 34  1  0  0  0  0
 19 20  1  0  0  0  0
 19 24  2  0  0  0  0
 20 21  2  0  0  0  0
 20 35  1  0  0  0  0
 21 22  1  0  0  0  0
 21 36  1  0  0  0  0
 22 23  2  0  0  0  0
 22 37  1  0  0  0  0
 23 24  1  0  0  0  0
 23 38  1  0  0  0  0
 24 39  1  0  0  0  0
M  END
> <SMILES QCArchive>
[H]c1c(c(c(c(c1[H])[H])C2=C(N(c3c2c(c(c(c3[H])[H])[H])[H])S(=O)(=O)c4c(c(c(c(c4[H])[H])[H])[H])[H])[H])[H])[H]

> <Energy QCArchive>
-862603.2306002404

> <Record QCArchive>
36954866

> <Compound Name>
BRI-01081-2

> <final_energy>
-862603.2306002404

$$$$
