BRI-00538-02
  -OEChem-11282313333D

 40 41  0     1  0  0  0  0  0999 V2000
   -0.2334    5.0769   -3.8814 C   0  0  0  0  0  0  0  0  0  0  0  0
    0.9371    5.6211   -3.1970 N   0  0  1  0  0  0  0  0  0  0  0  0
    0.6629    6.8782   -2.4977 C   0  0  0  0  0  0  0  0  0  0  0  0
    0.3463    8.0442   -3.4511 C   0  0  0  0  0  0  0  0  0  0  0  0
    0.2514    9.3505   -2.6961 C   0  0  0  0  0  0  0  0  0  0  0  0
   -0.9396    9.7394   -2.0706 C   0  0  0  0  0  0  0  0  0  0  0  0
   -1.0138   10.9193   -1.3228 C   0  0  0  0  0  0  0  0  0  0  0  0
    0.1085   11.7342   -1.1873 C   0  0  0  0  0  0  0  0  0  0  0  0
    0.0338   12.8934   -0.4603 O   0  0  0  0  0  0  0  0  0  0  0  0
    1.3080   11.3524   -1.8112 C   0  0  0  0  0  0  0  0  0  0  0  0
    2.3700   12.2226   -1.6291 O   0  0  0  0  0  0  0  0  0  0  0  0
    1.3788   10.1758   -2.5528 C   0  0  0  0  0  0  0  0  0  0  0  0
    1.6199    4.6302   -2.3519 C   0  0  0  0  0  0  0  0  0  0  0  0
    0.8074    4.1110   -1.1755 C   0  0  0  0  0  0  0  0  0  0  0  0
   -0.0101    2.9778   -1.3146 C   0  0  0  0  0  0  0  0  0  0  0  0
   -0.8134    2.5323   -0.2663 C   0  0  0  0  0  0  0  0  0  0  0  0
   -0.7929    3.2388    0.9374 C   0  0  0  0  0  0  0  0  0  0  0  0
    0.0124    4.3654    1.1153 C   0  0  0  0  0  0  0  0  0  0  0  0
    0.8079    4.7912    0.0534 C   0  0  0  0  0  0  0  0  0  0  0  0
   -1.6371    2.7794    2.0508 N   0  3  0  0  0  0  0  0  0  0  0  0
   -1.6000    3.4227    3.1059 O   0  5  0  0  0  0  0  0  0  0  0  0
   -2.3365    1.7763    1.8676 O   0  0  0  0  0  0  0  0  0  0  0  0
   -0.5611    5.7665   -4.6630 H   0  0  0  0  0  0  0  0  0  0  0  0
   -1.0896    4.8857   -3.2113 H   0  0  0  0  0  0  0  0  0  0  0  0
    0.0365    4.1348   -4.3689 H   0  0  0  0  0  0  0  0  0  0  0  0
    1.5601    7.1432   -1.9272 H   0  0  0  0  0  0  0  0  0  0  0  0
   -0.1593    6.7834   -1.7665 H   0  0  0  0  0  0  0  0  0  0  0  0
   -0.5981    7.8586   -3.9717 H   0  0  0  0  0  0  0  0  0  0  0  0
    1.1312    8.0905   -4.2135 H   0  0  0  0  0  0  0  0  0  0  0  0
   -1.8258    9.1171   -2.1697 H   0  0  0  0  0  0  0  0  0  0  0  0
   -1.9382   11.2252   -0.8415 H   0  0  0  0  0  0  0  0  0  0  0  0
    0.9068   13.3219   -0.4929 H   0  0  0  0  0  0  0  0  0  0  0  0
    3.1412   11.9051   -2.1237 H   0  0  0  0  0  0  0  0  0  0  0  0
    2.3183    9.8967   -3.0301 H   0  0  0  0  0  0  0  0  0  0  0  0
    1.9086    3.7914   -2.9946 H   0  0  0  0  0  0  0  0  0  0  0  0
    2.5438    5.0896   -1.9851 H   0  0  0  0  0  0  0  0  0  0  0  0
   -0.0135    2.4318   -2.2544 H   0  0  0  0  0  0  0  0  0  0  0  0
   -1.4446    1.6567   -0.3636 H   0  0  0  0  0  0  0  0  0  0  0  0
    0.0078    4.8835    2.0672 H   0  0  0  0  0  0  0  0  0  0  0  0
    1.4423    5.6637    0.1839 H   0  0  0  0  0  0  0  0  0  0  0  0
  1  2  1  0  0  0  0
  1 23  1  0  0  0  0
  1 24  1  0  0  0  0
  1 25  1  0  0  0  0
  2  3  1  0  0  0  0
  2 13  1  0  0  0  0
  3  4  1  0  0  0  0
  3 26  1  0  0  0  0
  3 27  1  0  0  0  0
  4  5  1  0  0  0  0
  4 28  1  0  0  0  0
  4 29  1  0  0  0  0
  5  6  1  0  0  0  0
  5 12  2  0  0  0  0
  6  7  2  0  0  0  0
  6 30  1  0  0  0  0
  7  8  1  0  0  0  0
  7 31  1  0  0  0  0
  8  9  1  0  0  0  0
  8 10  2  0  0  0  0
  9 32  1  0  0  0  0
 10 11  1  0  0  0  0
 10 12  1  0  0  0  0
 11 33  1  0  0  0  0
 12 34  1  0  0  0  0
 13 14  1  0  0  0  0
 13 35  1  0  0  0  0
 13 36  1  0  0  0  0
 14 15  1  0  0  0  0
 14 19  2  0  0  0  0
 15 16  2  0  0  0  0
 15 37  1  0  0  0  0
 16 17  1  0  0  0  0
 16 38  1  0  0  0  0
 17 18  2  0  0  0  0
 17 20  1  0  0  0  0
 18 19  1  0  0  0  0
 18 39  1  0  0  0  0
 19 40  1  0  0  0  0
 20 21  1  0  0  0  0
 20 22  2  0  0  0  0
M  CHG  2  20   1  21  -1
M  END
> <SMILES QCArchive>
[H]c1c(c(c(c(c1C([H])([H])N(C([H])([H])[H])C([H])([H])C([H])([H])c2c(c(c(c(c2[H])O[H])O[H])[H])[H])[H])[H])[N+](=O)[O-])[H]

> <Energy QCArchive>
-646981.173673444

> <Record QCArchive>
36954879

> <Compound Name>
BRI-00538-2

> <final_energy>
-646981.173673444

$$$$
