BRI-01064-01
  -OEChem-11282313333D

 57 58  0     1  0  0  0  0  0999 V2000
   -1.2196    2.3750    0.9276 C   0  0  0  0  0  0  0  0  0  0  0  0
    0.0224    1.8069    0.2325 C   0  0  0  0  0  0  0  0  0  0  0  0
   -0.1820    1.2485   -1.1895 C   0  0  0  0  0  0  0  0  0  0  0  0
   -0.9175   -0.1229   -1.3965 C   0  0  1  0  0  0  0  0  0  0  0  0
   -0.2721   -0.7097   -2.0518 H   0  0  0  0  0  0  0  0  0  0  0  0
   -1.0534   -0.9672   -0.1140 C   0  0  0  0  0  0  0  0  0  0  0  0
    0.2493   -1.3937    0.5284 C   0  0  0  0  0  0  0  0  0  0  0  0
    0.3961   -1.5926    1.7206 O   0  0  0  0  0  0  0  0  0  0  0  0
    1.2396   -1.5711   -0.3837 O   0  0  0  0  0  0  0  0  0  0  0  0
    2.5195   -2.0233    0.1302 C   0  0  0  0  0  0  0  0  0  0  0  0
    2.5464   -3.5351    0.3044 C   0  0  0  0  0  0  0  0  0  0  0  0
   -2.2094   -0.0757   -2.1129 N   0  0  1  0  0  0  0  0  0  0  0  0
   -3.2294    0.8038   -1.5522 C   0  0  0  0  0  0  0  0  0  0  0  0
   -4.0814    0.1603   -0.4668 C   0  0  0  0  0  0  0  0  0  0  0  0
   -4.6084    0.9392    0.5712 C   0  0  0  0  0  0  0  0  0  0  0  0
   -5.4341    0.3700    1.5464 C   0  0  0  0  0  0  0  0  0  0  0  0
   -5.7455   -0.9919    1.4932 C   0  0  0  0  0  0  0  0  0  0  0  0
   -5.2290   -1.7754    0.4545 C   0  0  0  0  0  0  0  0  0  0  0  0
   -4.4059   -1.2015   -0.5171 C   0  0  0  0  0  0  0  0  0  0  0  0
   -2.0717   -0.0916   -3.5848 C   0  0  1  0  0  0  0  0  0  0  0  0
   -1.3796   -0.9166   -3.7855 H   0  0  0  0  0  0  0  0  0  0  0  0
   -3.3864   -0.4682   -4.2801 C   0  0  0  0  0  0  0  0  0  0  0  0
   -1.4351    1.1593   -4.1913 C   0  0  0  0  0  0  0  0  0  0  0  0
   -0.1031    1.1182   -4.6247 C   0  0  0  0  0  0  0  0  0  0  0  0
    0.5341    2.2586   -5.1230 C   0  0  0  0  0  0  0  0  0  0  0  0
   -0.1589    3.4702   -5.1967 C   0  0  0  0  0  0  0  0  0  0  0  0
   -1.4940    3.5236   -4.7800 C   0  0  0  0  0  0  0  0  0  0  0  0
   -2.1253    2.3784   -4.2888 C   0  0  0  0  0  0  0  0  0  0  0  0
   -1.6855    3.1604    0.3203 H   0  0  0  0  0  0  0  0  0  0  0  0
   -0.9505    2.8196    1.8921 H   0  0  0  0  0  0  0  0  0  0  0  0
   -1.9758    1.6112    1.1230 H   0  0  0  0  0  0  0  0  0  0  0  0
    0.4852    1.0562    0.8812 H   0  0  0  0  0  0  0  0  0  0  0  0
    0.7631    2.6124    0.1498 H   0  0  0  0  0  0  0  0  0  0  0  0
   -0.6815    2.0105   -1.7942 H   0  0  0  0  0  0  0  0  0  0  0  0
    0.8118    1.1405   -1.6349 H   0  0  0  0  0  0  0  0  0  0  0  0
   -1.5840   -1.8893   -0.3755 H   0  0  0  0  0  0  0  0  0  0  0  0
   -1.6462   -0.4862    0.6624 H   0  0  0  0  0  0  0  0  0  0  0  0
    3.2407   -1.6950   -0.6216 H   0  0  0  0  0  0  0  0  0  0  0  0
    2.7210   -1.5118    1.0737 H   0  0  0  0  0  0  0  0  0  0  0  0
    2.3074   -4.0385   -0.6376 H   0  0  0  0  0  0  0  0  0  0  0  0
    1.8309   -3.8490    1.0679 H   0  0  0  0  0  0  0  0  0  0  0  0
    3.5470   -3.8519    0.6189 H   0  0  0  0  0  0  0  0  0  0  0  0
   -3.9112    1.0996   -2.3521 H   0  0  0  0  0  0  0  0  0  0  0  0
   -2.8075    1.7430   -1.1714 H   0  0  0  0  0  0  0  0  0  0  0  0
   -4.3675    1.9989    0.6229 H   0  0  0  0  0  0  0  0  0  0  0  0
   -5.8265    0.9878    2.3505 H   0  0  0  0  0  0  0  0  0  0  0  0
   -6.3799   -1.4391    2.2542 H   0  0  0  0  0  0  0  0  0  0  0  0
   -5.4656   -2.8357    0.4053 H   0  0  0  0  0  0  0  0  0  0  0  0
   -3.9889   -1.8072   -1.3163 H   0  0  0  0  0  0  0  0  0  0  0  0
   -3.1960   -0.6525   -5.3418 H   0  0  0  0  0  0  0  0  0  0  0  0
   -4.1455    0.3165   -4.2237 H   0  0  0  0  0  0  0  0  0  0  0  0
   -3.8017   -1.3759   -3.8326 H   0  0  0  0  0  0  0  0  0  0  0  0
    0.4486    0.1822   -4.5597 H   0  0  0  0  0  0  0  0  0  0  0  0
    1.5695    2.2015   -5.4500 H   0  0  0  0  0  0  0  0  0  0  0  0
    0.3320    4.3614   -5.5791 H   0  0  0  0  0  0  0  0  0  0  0  0
   -2.0449    4.4590   -4.8415 H   0  0  0  0  0  0  0  0  0  0  0  0
   -3.1634    2.4444   -3.9762 H   0  0  0  0  0  0  0  0  0  0  0  0
  1  2  1  0  0  0  0
  1 29  1  0  0  0  0
  1 30  1  0  0  0  0
  1 31  1  0  0  0  0
  2  3  1  0  0  0  0
  2 32  1  0  0  0  0
  2 33  1  0  0  0  0
  3  4  1  0  0  0  0
  3 34  1  0  0  0  0
  3 35  1  0  0  0  0
  4  5  1  0  0  0  0
  4  6  1  0  0  0  0
  4 12  1  0  0  0  0
  6  7  1  0  0  0  0
  6 36  1  0  0  0  0
  6 37  1  0  0  0  0
  7  8  2  0  0  0  0
  7  9  1  0  0  0  0
  9 10  1  0  0  0  0
 10 11  1  0  0  0  0
 10 38  1  0  0  0  0
 10 39  1  0  0  0  0
 11 40  1  0  0  0  0
 11 41  1  0  0  0  0
 11 42  1  0  0  0  0
 12 13  1  0  0  0  0
 12 20  1  0  0  0  0
 13 14  1  0  0  0  0
 13 43  1  0  0  0  0
 13 44  1  0  0  0  0
 14 15  1  0  0  0  0
 14 19  2  0  0  0  0
 15 16  2  0  0  0  0
 15 45  1  0  0  0  0
 16 17  1  0  0  0  0
 16 46  1  0  0  0  0
 17 18  2  0  0  0  0
 17 47  1  0  0  0  0
 18 19  1  0  0  0  0
 18 48  1  0  0  0  0
 19 49  1  0  0  0  0
 20 21  1  0  0  0  0
 20 22  1  0  0  0  0
 20 23  1  0  0  0  0
 22 50  1  0  0  0  0
 22 51  1  0  0  0  0
 22 52  1  0  0  0  0
 23 24  1  0  0  0  0
 23 28  2  0  0  0  0
 24 25  2  0  0  0  0
 24 53  1  0  0  0  0
 25 26  1  0  0  0  0
 25 54  1  0  0  0  0
 26 27  2  0  0  0  0
 26 55  1  0  0  0  0
 27 28  1  0  0  0  0
 27 56  1  0  0  0  0
 28 57  1  0  0  0  0
M  END
> <SMILES QCArchive>
[H]c1c(c(c(c(c1[H])[H])[C@]([H])(C([H])([H])[H])N([C@]([H])(C([H])([H])C(=O)OC([H])([H])C([H])([H])[H])C([H])([H])C([H])([H])C([H])([H])[H])C([H])([H])c2c(c(c(c(c2[H])[H])[H])[H])[H])[H])[H]

> <Energy QCArchive>
-690599.1497686488

> <Record QCArchive>
36954888

> <Compound Name>
BRI-01064-1

> <final_energy>
-690599.1497686488

$$$$
