BRI-00386-00
  -OEChem-11282313333D

 40 42  0     1  0  0  0  0  0999 V2000
    2.2905   -3.0279   -2.0184 C   0  0  0  0  0  0  0  0  0  0  0  0
    2.8559   -1.7101   -1.9286 O   0  0  0  0  0  0  0  0  0  0  0  0
    2.4343   -0.7284   -2.7715 C   0  0  0  0  0  0  0  0  0  0  0  0
    2.3639   -0.8185   -4.1634 C   0  0  0  0  0  0  0  0  0  0  0  0
    1.9923    0.2225   -4.9454 N   0  0  0  0  0  0  0  0  0  0  0  0
    1.7567    1.3625   -4.3124 C   0  0  0  0  0  0  0  0  0  0  0  0
    1.7992    1.5769   -2.9927 N   0  0  0  0  0  0  0  0  0  0  0  0
    2.1070    0.5452   -2.1926 C   0  0  0  0  0  0  0  0  0  0  0  0
    2.1541    0.7651   -0.8333 N   0  0  2  0  0  0  0  0  0  0  0  0
    1.7482   -0.2967    0.1179 C   0  0  0  0  0  0  0  0  0  0  0  0
    1.0856    0.2926    1.3810 C   0  0  0  0  0  0  0  0  0  0  0  0
    0.0889    1.3650    1.0270 C   0  0  0  0  0  0  0  0  0  0  0  0
   -1.2173    1.4324    1.5147 C   0  0  0  0  0  0  0  0  0  0  0  0
   -2.0667    2.4695    1.1127 C   0  0  0  0  0  0  0  0  0  0  0  0
   -1.5889    3.4164    0.2110 C   0  0  0  0  0  0  0  0  0  0  0  0
   -2.4271    4.4930   -0.1574 O   0  0  0  0  0  0  0  0  0  0  0  0
   -3.2035    4.3155   -1.2537 C   0  0  0  0  0  0  0  0  0  0  0  0
   -2.4829    4.0752   -2.3737 F   0  0  0  0  0  0  0  0  0  0  0  0
   -4.0707    3.2828   -1.1198 F   0  0  0  0  0  0  0  0  0  0  0  0
   -3.9116    5.4365   -1.4402 F   0  0  0  0  0  0  0  0  0  0  0  0
   -0.2909    3.3690   -0.2950 C   0  0  0  0  0  0  0  0  0  0  0  0
    0.5488    2.3391    0.1244 C   0  0  0  0  0  0  0  0  0  0  0  0
    1.9641    2.1489   -0.3602 C   0  0  0  0  0  0  0  0  0  0  0  0
    2.8114   -2.0455   -4.9062 C   0  0  0  0  0  0  0  0  0  0  0  0
    2.1452   -2.2208   -6.0679 O   0  0  0  0  0  0  0  0  0  0  0  0
    3.6960   -2.7979   -4.5365 O   0  0  0  0  0  0  0  0  0  0  0  0
    1.3514   -3.0135   -2.5812 H   0  0  0  0  0  0  0  0  0  0  0  0
    2.0931   -3.3520   -0.9923 H   0  0  0  0  0  0  0  0  0  0  0  0
    2.9982   -3.7025   -2.5008 H   0  0  0  0  0  0  0  0  0  0  0  0
    1.4901    2.2196   -4.9282 H   0  0  0  0  0  0  0  0  0  0  0  0
    1.0213   -0.9501   -0.3725 H   0  0  0  0  0  0  0  0  0  0  0  0
    2.6092   -0.9066    0.4006 H   0  0  0  0  0  0  0  0  0  0  0  0
    1.8607    0.7132    2.0344 H   0  0  0  0  0  0  0  0  0  0  0  0
    0.6184   -0.5254    1.9370 H   0  0  0  0  0  0  0  0  0  0  0  0
   -1.5800    0.6810    2.2121 H   0  0  0  0  0  0  0  0  0  0  0  0
   -3.0837    2.5450    1.4839 H   0  0  0  0  0  0  0  0  0  0  0  0
    0.0431    4.1163   -1.0083 H   0  0  0  0  0  0  0  0  0  0  0  0
    2.2122    2.8324   -1.1669 H   0  0  0  0  0  0  0  0  0  0  0  0
    2.6711    2.3182    0.4619 H   0  0  0  0  0  0  0  0  0  0  0  0
    2.5515   -3.0019   -6.4908 H   0  0  0  0  0  0  0  0  0  0  0  0
  1  2  1  0  0  0  0
  1 27  1  0  0  0  0
  1 28  1  0  0  0  0
  1 29  1  0  0  0  0
  2  3  1  0  0  0  0
  3  4  1  0  0  0  0
  3  8  2  0  0  0  0
  4  5  2  0  0  0  0
  4 24  1  0  0  0  0
  5  6  1  0  0  0  0
  6  7  2  0  0  0  0
  6 30  1  0  0  0  0
  7  8  1  0  0  0  0
  8  9  1  0  0  0  0
  9 10  1  0  0  0  0
  9 23  1  0  0  0  0
 10 11  1  0  0  0  0
 10 31  1  0  0  0  0
 10 32  1  0  0  0  0
 11 12  1  0  0  0  0
 11 33  1  0  0  0  0
 11 34  1  0  0  0  0
 12 13  1  0  0  0  0
 12 22  2  0  0  0  0
 13 14  2  0  0  0  0
 13 35  1  0  0  0  0
 14 15  1  0  0  0  0
 14 36  1  0  0  0  0
 15 16  1  0  0  0  0
 15 21  2  0  0  0  0
 16 17  1  0  0  0  0
 17 18  1  0  0  0  0
 17 19  1  0  0  0  0
 17 20  1  0  0  0  0
 21 22  1  0  0  0  0
 21 37  1  0  0  0  0
 22 23  1  0  0  0  0
 23 38  1  0  0  0  0
 23 39  1  0  0  0  0
 24 25  1  0  0  0  0
 24 26  2  0  0  0  0
 25 40  1  0  0  0  0
M  END
> <SMILES QCArchive>
[H]c1c(c(c(c2c1C(C(N(C2([H])[H])c3c(c(nc(n3)[H])C(=O)O[H])OC([H])([H])[H])([H])[H])([H])[H])[H])OC(F)(F)F)[H]

> <Energy QCArchive>
-867903.2854710637

> <Record QCArchive>
36954894

> <Compound Name>
BRI-00386-0

> <final_energy>
-867903.2854710637

$$$$
