BRI-00226-01
  -OEChem-11282313333D

 60 63  0     1  0  0  0  0  0999 V2000
    2.0106   -1.3388    4.9903 O   0  0  0  0  0  0  0  0  0  0  0  0
    1.7328   -1.1622    6.3222 C   0  0  0  0  0  0  0  0  0  0  0  0
    2.4262   -1.6831    7.1753 O   0  0  0  0  0  0  0  0  0  0  0  0
    0.6411   -0.3771    6.5975 N   0  0  0  0  0  0  0  0  0  0  0  0
    0.2413   -0.1459    7.9934 C   0  0  0  0  0  0  0  0  0  0  0  0
   -1.0473    0.6676    7.8435 C   0  0  0  0  0  0  0  0  0  0  0  0
   -0.7823    1.5087    6.5854 C   0  0  0  0  0  0  0  0  0  0  0  0
    0.0128    0.5571    5.6529 C   0  0  2  0  0  0  0  0  0  0  0  0
    0.7827    1.1259    5.1179 H   0  0  0  0  0  0  0  0  0  0  0  0
   -0.8697   -0.1347    4.6225 C   0  0  0  0  0  0  0  0  0  0  0  0
   -1.0145    0.4239    3.3433 C   0  0  0  0  0  0  0  0  0  0  0  0
   -1.8682   -0.1613    2.4059 C   0  0  0  0  0  0  0  0  0  0  0  0
   -2.5776   -1.3203    2.7319 C   0  0  0  0  0  0  0  0  0  0  0  0
   -2.4289   -1.8985    4.0013 C   0  0  0  0  0  0  0  0  0  0  0  0
   -1.5794   -1.2968    4.9381 C   0  0  0  0  0  0  0  0  0  0  0  0
   -3.1826   -3.1238    4.4451 C   0  0  0  0  0  0  0  0  0  0  0  0
   -3.4744   -3.2959    5.6278 O   0  0  0  0  0  0  0  0  0  0  0  0
   -3.4956   -4.0031    3.4353 N   0  0  0  0  0  0  0  0  0  0  0  0
   -4.2247   -5.2127    3.5046 C   0  0  0  0  0  0  0  0  0  0  0  0
   -4.3279   -5.9683    2.3244 C   0  0  0  0  0  0  0  0  0  0  0  0
   -5.0418   -7.1642    2.3103 C   0  0  0  0  0  0  0  0  0  0  0  0
   -5.6725   -7.6460    3.4667 C   0  0  0  0  0  0  0  0  0  0  0  0
   -6.4951   -8.9122    3.4320 C   0  0  0  0  0  0  0  0  0  0  0  0
   -7.9594   -8.6243    3.0542 C   0  0  0  0  0  0  0  0  0  0  0  0
   -8.7664   -9.8375    2.9586 N   0  0  0  0  0  0  0  0  0  0  0  0
   -9.1095  -10.4422    4.2637 C   0  0  0  0  0  0  0  0  0  0  0  0
  -10.5804  -10.2506    4.6274 C   0  0  0  0  0  0  0  0  0  0  0  0
  -11.4543  -10.8322    3.6551 O   0  0  0  0  0  0  0  0  0  0  0  0
  -10.9353  -10.7853    2.3188 C   0  0  0  0  0  0  0  0  0  0  0  0
   -9.9551   -9.6381    2.1197 C   0  0  0  0  0  0  0  0  0  0  0  0
   -5.5578   -6.8813    4.6350 C   0  0  0  0  0  0  0  0  0  0  0  0
   -4.8459   -5.6802    4.6735 C   0  0  0  0  0  0  0  0  0  0  0  0
    1.2393   -1.1087    4.4423 H   0  0  0  0  0  0  0  0  0  0  0  0
    1.0196    0.4129    8.5280 H   0  0  0  0  0  0  0  0  0  0  0  0
    0.1026   -1.0994    8.5070 H   0  0  0  0  0  0  0  0  0  0  0  0
   -1.2568    1.2814    8.7229 H   0  0  0  0  0  0  0  0  0  0  0  0
   -1.9008    0.0012    7.6855 H   0  0  0  0  0  0  0  0  0  0  0  0
   -0.1530    2.3692    6.8355 H   0  0  0  0  0  0  0  0  0  0  0  0
   -1.6912    1.8790    6.1066 H   0  0  0  0  0  0  0  0  0  0  0  0
   -0.4614    1.3243    3.0834 H   0  0  0  0  0  0  0  0  0  0  0  0
   -1.9858    0.2877    1.4235 H   0  0  0  0  0  0  0  0  0  0  0  0
   -3.2679   -1.7409    2.0051 H   0  0  0  0  0  0  0  0  0  0  0  0
   -1.4767   -1.7576    5.9149 H   0  0  0  0  0  0  0  0  0  0  0  0
   -3.0847   -3.8074    2.5321 H   0  0  0  0  0  0  0  0  0  0  0  0
   -3.8428   -5.6193    1.4140 H   0  0  0  0  0  0  0  0  0  0  0  0
   -5.1050   -7.7342    1.3858 H   0  0  0  0  0  0  0  0  0  0  0  0
   -6.4525   -9.4076    4.4078 H   0  0  0  0  0  0  0  0  0  0  0  0
   -6.0899   -9.6189    2.7006 H   0  0  0  0  0  0  0  0  0  0  0  0
   -8.3862   -7.8902    3.7641 H   0  0  0  0  0  0  0  0  0  0  0  0
   -7.9680   -8.1391    2.0719 H   0  0  0  0  0  0  0  0  0  0  0  0
   -8.4945   -9.9981    5.0532 H   0  0  0  0  0  0  0  0  0  0  0  0
   -8.8806  -11.5153    4.2476 H   0  0  0  0  0  0  0  0  0  0  0  0
  -10.8057  -10.7400    5.5801 H   0  0  0  0  0  0  0  0  0  0  0  0
  -10.8040   -9.1787    4.7388 H   0  0  0  0  0  0  0  0  0  0  0  0
  -11.7942  -10.6718    1.6506 H   0  0  0  0  0  0  0  0  0  0  0  0
  -10.4377  -11.7367    2.0818 H   0  0  0  0  0  0  0  0  0  0  0  0
   -9.6495   -9.6018    1.0668 H   0  0  0  0  0  0  0  0  0  0  0  0
  -10.4725   -8.6863    2.3403 H   0  0  0  0  0  0  0  0  0  0  0  0
   -6.0313   -7.2336    5.5493 H   0  0  0  0  0  0  0  0  0  0  0  0
   -4.7600   -5.1135    5.5902 H   0  0  0  0  0  0  0  0  0  0  0  0
  1  2  1  0  0  0  0
  1 33  1  0  0  0  0
  2  3  2  0  0  0  0
  2  4  1  0  0  0  0
  4  5  1  0  0  0  0
  4  8  1  0  0  0  0
  5  6  1  0  0  0  0
  5 34  1  0  0  0  0
  5 35  1  0  0  0  0
  6  7  1  0  0  0  0
  6 36  1  0  0  0  0
  6 37  1  0  0  0  0
  7  8  1  0  0  0  0
  7 38  1  0  0  0  0
  7 39  1  0  0  0  0
  8  9  1  0  0  0  0
  8 10  1  0  0  0  0
 10 11  1  0  0  0  0
 10 15  2  0  0  0  0
 11 12  2  0  0  0  0
 11 40  1  0  0  0  0
 12 13  1  0  0  0  0
 12 41  1  0  0  0  0
 13 14  2  0  0  0  0
 13 42  1  0  0  0  0
 14 15  1  0  0  0  0
 14 16  1  0  0  0  0
 15 43  1  0  0  0  0
 16 17  2  0  0  0  0
 16 18  1  0  0  0  0
 18 19  1  0  0  0  0
 18 44  1  0  0  0  0
 19 20  1  0  0  0  0
 19 32  2  0  0  0  0
 20 21  2  0  0  0  0
 20 45  1  0  0  0  0
 21 22  1  0  0  0  0
 21 46  1  0  0  0  0
 22 23  1  0  0  0  0
 22 31  2  0  0  0  0
 23 24  1  0  0  0  0
 23 47  1  0  0  0  0
 23 48  1  0  0  0  0
 24 25  1  0  0  0  0
 24 49  1  0  0  0  0
 24 50  1  0  0  0  0
 25 26  1  0  0  0  0
 25 30  1  0  0  0  0
 26 27  1  0  0  0  0
 26 51  1  0  0  0  0
 26 52  1  0  0  0  0
 27 28  1  0  0  0  0
 27 53  1  0  0  0  0
 27 54  1  0  0  0  0
 28 29  1  0  0  0  0
 29 30  1  0  0  0  0
 29 55  1  0  0  0  0
 29 56  1  0  0  0  0
 30 57  1  0  0  0  0
 30 58  1  0  0  0  0
 31 32  1  0  0  0  0
 31 59  1  0  0  0  0
 32 60  1  0  0  0  0
M  END
> <SMILES QCArchive>
[H]c1c(c(c(c(c1[H])[C@]2(C(C(C(N2C(=O)O[H])([H])[H])([H])[H])([H])[H])[H])[H])C(=O)N([H])c3c(c(c(c(c3[H])[H])C([H])([H])C([H])([H])N4C(C(OC(C4([H])[H])([H])[H])([H])[H])([H])[H])[H])[H])[H]

> <Energy QCArchive>
-876919.5395084999

> <Record QCArchive>
36954847

> <Compound Name>
BRI-00226-1

> <final_energy>
-876919.5395084999

$$$$
