BRI-00959-02
  -OEChem-11282313333D

 38 39  0     1  0  0  0  0  0999 V2000
    1.0156    1.3459   -0.8901 O   0  5  0  0  0  0  0  0  0  0  0  0
    0.2311    1.0098    0.0043 N   0  3  0  0  0  0  0  0  0  0  0  0
    0.2571   -0.0808    0.5852 O   0  0  0  0  0  0  0  0  0  0  0  0
   -0.8049    1.9751    0.4057 C   0  0  0  0  0  0  0  0  0  0  0  0
   -0.8697    3.2075   -0.2433 C   0  0  0  0  0  0  0  0  0  0  0  0
   -1.8596    4.1131    0.1413 C   0  0  0  0  0  0  0  0  0  0  0  0
   -2.7667    3.7966    1.1601 C   0  0  0  0  0  0  0  0  0  0  0  0
   -3.8209    4.7900    1.6029 C   0  0  0  0  0  0  0  0  0  0  0  0
   -5.1332    4.1551    1.7581 N   0  0  2  0  0  0  0  0  0  0  0  0
   -5.7415    3.8427    0.4577 C   0  0  0  0  0  0  0  0  0  0  0  0
   -6.9007    2.8777    0.5683 C   0  0  0  0  0  0  0  0  0  0  0  0
   -6.7759    1.7041    1.3259 C   0  0  0  0  0  0  0  0  0  0  0  0
   -7.8273    0.7927    1.4149 C   0  0  0  0  0  0  0  0  0  0  0  0
   -9.0200    1.0578    0.7355 C   0  0  0  0  0  0  0  0  0  0  0  0
  -10.3499   -0.0832    0.8458 Cl  0  0  0  0  0  0  0  0  0  0  0  0
   -9.1707    2.2184   -0.0229 C   0  0  0  0  0  0  0  0  0  0  0  0
   -8.1066    3.1232   -0.0974 C   0  0  0  0  0  0  0  0  0  0  0  0
   -6.0293    4.8674    2.6545 C   0  0  0  0  0  0  0  0  0  0  0  0
   -5.8562    4.4285    4.1032 C   0  0  0  0  0  0  0  0  0  0  0  0
   -6.0955    3.1094    4.2693 F   0  0  0  0  0  0  0  0  0  0  0  0
   -6.7172    5.1058    4.9022 F   0  0  0  0  0  0  0  0  0  0  0  0
   -4.6026    4.6654    4.5767 F   0  0  0  0  0  0  0  0  0  0  0  0
   -2.6757    2.5478    1.7958 C   0  0  0  0  0  0  0  0  0  0  0  0
   -1.6973    1.6301    1.4246 C   0  0  0  0  0  0  0  0  0  0  0  0
   -0.1625    3.4368   -1.0318 H   0  0  0  0  0  0  0  0  0  0  0  0
   -1.9278    5.0741   -0.3625 H   0  0  0  0  0  0  0  0  0  0  0  0
   -3.5219    5.1995    2.5707 H   0  0  0  0  0  0  0  0  0  0  0  0
   -3.8576    5.6366    0.8950 H   0  0  0  0  0  0  0  0  0  0  0  0
   -4.9557    3.3913   -0.1572 H   0  0  0  0  0  0  0  0  0  0  0  0
   -6.0658    4.7573   -0.0698 H   0  0  0  0  0  0  0  0  0  0  0  0
   -5.8518    1.5137    1.8624 H   0  0  0  0  0  0  0  0  0  0  0  0
   -7.7282   -0.1127    2.0054 H   0  0  0  0  0  0  0  0  0  0  0  0
  -10.1042    2.4146   -0.5408 H   0  0  0  0  0  0  0  0  0  0  0  0
   -8.2259    4.0313   -0.6842 H   0  0  0  0  0  0  0  0  0  0  0  0
   -7.0656    4.6373    2.3989 H   0  0  0  0  0  0  0  0  0  0  0  0
   -5.9142    5.9617    2.6220 H   0  0  0  0  0  0  0  0  0  0  0  0
   -3.3843    2.3036    2.5811 H   0  0  0  0  0  0  0  0  0  0  0  0
   -1.6119    0.6627    1.9058 H   0  0  0  0  0  0  0  0  0  0  0  0
  1  2  1  0  0  0  0
  2  3  2  0  0  0  0
  2  4  1  0  0  0  0
  4  5  1  0  0  0  0
  4 24  2  0  0  0  0
  5  6  2  0  0  0  0
  5 25  1  0  0  0  0
  6  7  1  0  0  0  0
  6 26  1  0  0  0  0
  7  8  1  0  0  0  0
  7 23  2  0  0  0  0
  8  9  1  0  0  0  0
  8 27  1  0  0  0  0
  8 28  1  0  0  0  0
  9 10  1  0  0  0  0
  9 18  1  0  0  0  0
 10 11  1  0  0  0  0
 10 29  1  0  0  0  0
 10 30  1  0  0  0  0
 11 12  1  0  0  0  0
 11 17  2  0  0  0  0
 12 13  2  0  0  0  0
 12 31  1  0  0  0  0
 13 14  1  0  0  0  0
 13 32  1  0  0  0  0
 14 15  1  0  0  0  0
 14 16  2  0  0  0  0
 16 17  1  0  0  0  0
 16 33  1  0  0  0  0
 17 34  1  0  0  0  0
 18 19  1  0  0  0  0
 18 35  1  0  0  0  0
 18 36  1  0  0  0  0
 19 20  1  0  0  0  0
 19 21  1  0  0  0  0
 19 22  1  0  0  0  0
 23 24  1  0  0  0  0
 23 37  1  0  0  0  0
 24 38  1  0  0  0  0
M  CHG  2   1  -1   2   1
M  END
> <SMILES QCArchive>
[H]c1c(c(c(c(c1C([H])([H])N(C([H])([H])c2c(c(c(c(c2[H])[H])Cl)[H])[H])C([H])([H])C(F)(F)F)[H])[H])[N+](=O)[O-])[H]

> <Energy QCArchive>
-1027817.2809941374

> <Record QCArchive>
36954905

> <Compound Name>
BRI-00959-2

> <final_energy>
-1027817.2809941374

$$$$
