BRI-00174-04
  -OEChem-11282313333D

 41 44  0     0  0  0  0  0  0999 V2000
    3.5059    2.0523   -2.1322 C   0  0  0  0  0  0  0  0  0  0  0  0
    2.6121    1.3631   -1.1958 N   0  0  0  0  0  0  0  0  0  0  0  0
    2.3248    1.9658    0.0560 C   0  0  0  0  0  0  0  0  0  0  0  0
    3.3360    2.6642    0.7389 C   0  0  0  0  0  0  0  0  0  0  0  0
    3.0898    3.3032    1.9475 C   0  0  0  0  0  0  0  0  0  0  0  0
    1.8161    3.2475    2.5430 C   0  0  0  0  0  0  0  0  0  0  0  0
    0.8182    2.5382    1.8728 C   0  0  0  0  0  0  0  0  0  0  0  0
    1.0437    1.9127    0.6367 C   0  0  0  0  0  0  0  0  0  0  0  0
   -0.0578    1.2744   -0.0068 N   0  0  0  0  0  0  0  0  0  0  0  0
   -1.3035    1.9914   -0.0447 C   0  0  0  0  0  0  0  0  0  0  0  0
   -2.4890    1.4115    0.4188 C   0  0  0  0  0  0  0  0  0  0  0  0
   -3.6748    2.1500    0.3896 C   0  0  0  0  0  0  0  0  0  0  0  0
   -3.6823    3.4633   -0.0912 C   0  0  0  0  0  0  0  0  0  0  0  0
   -2.4930    4.0377   -0.5528 C   0  0  0  0  0  0  0  0  0  0  0  0
   -1.3064    3.3024   -0.5353 C   0  0  0  0  0  0  0  0  0  0  0  0
    0.0185   -0.0169   -0.5225 C   0  0  0  0  0  0  0  0  0  0  0  0
   -0.9407   -0.5906   -1.0169 O   0  0  0  0  0  0  0  0  0  0  0  0
    1.4003   -0.6507   -0.4700 C   0  0  0  0  0  0  0  0  0  0  0  0
    2.3173    0.0386   -1.4705 C   0  0  0  0  0  0  0  0  0  0  0  0
    2.7358   -0.5250   -2.4748 O   0  0  0  0  0  0  0  0  0  0  0  0
    1.5060    3.9039    3.8428 C   0  0  0  0  0  0  0  0  0  0  0  0
    2.5384    3.9764    4.9577 C   0  0  0  0  0  0  0  0  0  0  0  0
    2.1410    5.2318    4.2268 C   0  0  0  0  0  0  0  0  0  0  0  0
    3.3586    3.1290   -2.0347 H   0  0  0  0  0  0  0  0  0  0  0  0
    4.5586    1.8077   -1.9500 H   0  0  0  0  0  0  0  0  0  0  0  0
    3.2568    1.7332   -3.1441 H   0  0  0  0  0  0  0  0  0  0  0  0
    4.3306    2.7036    0.3061 H   0  0  0  0  0  0  0  0  0  0  0  0
    3.9023    3.8382    2.4318 H   0  0  0  0  0  0  0  0  0  0  0  0
   -0.1795    2.4823    2.2980 H   0  0  0  0  0  0  0  0  0  0  0  0
   -2.4843    0.3912    0.7837 H   0  0  0  0  0  0  0  0  0  0  0  0
   -4.5952    1.6957    0.7467 H   0  0  0  0  0  0  0  0  0  0  0  0
   -4.6073    4.0334   -0.1090 H   0  0  0  0  0  0  0  0  0  0  0  0
   -2.4889    5.0555   -0.9339 H   0  0  0  0  0  0  0  0  0  0  0  0
   -0.3794    3.7411   -0.8928 H   0  0  0  0  0  0  0  0  0  0  0  0
    1.8188   -0.5876    0.5397 H   0  0  0  0  0  0  0  0  0  0  0  0
    1.3023   -1.6912   -0.7700 H   0  0  0  0  0  0  0  0  0  0  0  0
    0.4784    3.7697    4.1686 H   0  0  0  0  0  0  0  0  0  0  0  0
    2.1882    3.8368    5.9761 H   0  0  0  0  0  0  0  0  0  0  0  0
    3.5172    3.5515    4.7560 H   0  0  0  0  0  0  0  0  0  0  0  0
    1.5171    5.9561    4.7420 H   0  0  0  0  0  0  0  0  0  0  0  0
    2.8483    5.6649    3.5257 H   0  0  0  0  0  0  0  0  0  0  0  0
  1  2  1  0  0  0  0
  1 24  1  0  0  0  0
  1 25  1  0  0  0  0
  1 26  1  0  0  0  0
  2  3  1  0  0  0  0
  2 19  1  0  0  0  0
  3  4  1  0  0  0  0
  3  8  2  0  0  0  0
  4  5  2  0  0  0  0
  4 27  1  0  0  0  0
  5  6  1  0  0  0  0
  5 28  1  0  0  0  0
  6  7  2  0  0  0  0
  6 21  1  0  0  0  0
  7  8  1  0  0  0  0
  7 29  1  0  0  0  0
  8  9  1  0  0  0  0
  9 10  1  0  0  0  0
  9 16  1  0  0  0  0
 10 11  1  0  0  0  0
 10 15  2  0  0  0  0
 11 12  2  0  0  0  0
 11 30  1  0  0  0  0
 12 13  1  0  0  0  0
 12 31  1  0  0  0  0
 13 14  2  0  0  0  0
 13 32  1  0  0  0  0
 14 15  1  0  0  0  0
 14 33  1  0  0  0  0
 15 34  1  0  0  0  0
 16 17  2  0  0  0  0
 16 18  1  0  0  0  0
 18 19  1  0  0  0  0
 18 35  1  0  0  0  0
 18 36  1  0  0  0  0
 19 20  2  0  0  0  0
 21 22  1  0  0  0  0
 21 23  1  0  0  0  0
 21 37  1  0  0  0  0
 22 23  1  0  0  0  0
 22 38  1  0  0  0  0
 22 39  1  0  0  0  0
 23 40  1  0  0  0  0
 23 41  1  0  0  0  0
M  END
> <SMILES QCArchive>
[H]c1c(c(c(c(c1[H])[H])N2c3c(c(c(c(c3N(C(=O)C(C2=O)([H])[H])C([H])([H])[H])[H])[H])C4(C(C4([H])[H])([H])[H])[H])[H])[H])[H]

> <Energy QCArchive>
-624371.0048535684

> <Record QCArchive>
36954872

> <Compound Name>
BRI-00174-4

> <final_energy>
-624371.0048535684

$$$$
