BRI-01356-07
  -OEChem-11282313333D

 43 44  0     0  0  0  0  0  0999 V2000
   -3.7346    3.6092   -0.1515 N   0  0  0  0  0  0  0  0  0  0  0  0
   -2.7661    3.6261    0.8371 C   0  0  0  0  0  0  0  0  0  0  0  0
   -3.0487    3.8805    2.0059 O   0  0  0  0  0  0  0  0  0  0  0  0
   -1.3612    3.3565    0.3962 C   0  0  0  0  0  0  0  0  0  0  0  0
   -0.4192    3.0032    1.3723 C   0  0  0  0  0  0  0  0  0  0  0  0
    0.9061    2.7284    1.0441 C   0  0  0  0  0  0  0  0  0  0  0  0
    1.3186    2.8230   -0.2976 C   0  0  0  0  0  0  0  0  0  0  0  0
    2.6368    2.5681   -0.7232 N   0  0  0  0  0  0  0  0  0  0  0  0
    3.7433    2.2069    0.0248 C   0  0  0  0  0  0  0  0  0  0  0  0
    3.7249    2.0327    1.2341 O   0  0  0  0  0  0  0  0  0  0  0  0
    5.0069    2.0781   -0.8443 C   0  0  0  0  0  0  0  0  0  0  0  0
    6.1281    1.5046   -0.1320 N   0  0  0  0  0  0  0  0  0  0  0  0
    6.7549    2.4031    0.8463 C   0  0  0  0  0  0  0  0  0  0  0  0
    7.6455    3.4900    0.2123 C   0  0  0  0  0  0  0  0  0  0  0  0
    8.6976    2.8572   -0.7027 C   0  0  0  0  0  0  0  0  0  0  0  0
    8.0308    1.9314   -1.7304 C   0  0  0  0  0  0  0  0  0  0  0  0
    7.1387    0.9051   -1.0088 C   0  0  0  0  0  0  0  0  0  0  0  0
    9.5222    3.9026   -1.3218 N   0  0  0  0  0  0  0  0  0  0  0  0
   10.7403    3.5682   -1.8791 C   0  0  0  0  0  0  0  0  0  0  0  0
   11.3653    4.5990   -2.5379 O   0  0  0  0  0  0  0  0  0  0  0  0
   11.2665    2.4778   -1.7953 O   0  0  0  0  0  0  0  0  0  0  0  0
    0.3844    3.1958   -1.2812 C   0  0  0  0  0  0  0  0  0  0  0  0
   -0.9388    3.4560   -0.9385 C   0  0  0  0  0  0  0  0  0  0  0  0
   -3.5910    3.0317   -0.9696 H   0  0  0  0  0  0  0  0  0  0  0  0
   -4.6852    3.6397    0.1997 H   0  0  0  0  0  0  0  0  0  0  0  0
   -0.7471    2.9455    2.4056 H   0  0  0  0  0  0  0  0  0  0  0  0
    1.6195    2.4451    1.8050 H   0  0  0  0  0  0  0  0  0  0  0  0
    2.7907    2.6729   -1.7190 H   0  0  0  0  0  0  0  0  0  0  0  0
    4.7668    1.4223   -1.6895 H   0  0  0  0  0  0  0  0  0  0  0  0
    5.2000    3.0773   -1.2822 H   0  0  0  0  0  0  0  0  0  0  0  0
    5.9751    2.8457    1.4664 H   0  0  0  0  0  0  0  0  0  0  0  0
    7.3692    1.7820    1.5099 H   0  0  0  0  0  0  0  0  0  0  0  0
    7.0261    4.1904   -0.3671 H   0  0  0  0  0  0  0  0  0  0  0  0
    8.1337    4.0760    0.9988 H   0  0  0  0  0  0  0  0  0  0  0  0
    9.3822    2.2576   -0.0951 H   0  0  0  0  0  0  0  0  0  0  0  0
    8.7999    1.4203   -2.3173 H   0  0  0  0  0  0  0  0  0  0  0  0
    7.4285    2.5329   -2.4258 H   0  0  0  0  0  0  0  0  0  0  0  0
    6.6404    0.2506   -1.7313 H   0  0  0  0  0  0  0  0  0  0  0  0
    7.7716    0.2602   -0.3859 H   0  0  0  0  0  0  0  0  0  0  0  0
    9.0058    4.6595   -1.7562 H   0  0  0  0  0  0  0  0  0  0  0  0
   10.9589    5.4486   -2.2986 H   0  0  0  0  0  0  0  0  0  0  0  0
    0.7000    3.2903   -2.3188 H   0  0  0  0  0  0  0  0  0  0  0  0
   -1.6275    3.7749   -1.7158 H   0  0  0  0  0  0  0  0  0  0  0  0
  1  2  1  0  0  0  0
  1 24  1  0  0  0  0
  1 25  1  0  0  0  0
  2  3  2  0  0  0  0
  2  4  1  0  0  0  0
  4  5  1  0  0  0  0
  4 23  2  0  0  0  0
  5  6  2  0  0  0  0
  5 26  1  0  0  0  0
  6  7  1  0  0  0  0
  6 27  1  0  0  0  0
  7  8  1  0  0  0  0
  7 22  2  0  0  0  0
  8  9  1  0  0  0  0
  8 28  1  0  0  0  0
  9 10  2  0  0  0  0
  9 11  1  0  0  0  0
 11 12  1  0  0  0  0
 11 29  1  0  0  0  0
 11 30  1  0  0  0  0
 12 13  1  0  0  0  0
 12 17  1  0  0  0  0
 13 14  1  0  0  0  0
 13 31  1  0  0  0  0
 13 32  1  0  0  0  0
 14 15  1  0  0  0  0
 14 33  1  0  0  0  0
 14 34  1  0  0  0  0
 15 16  1  0  0  0  0
 15 18  1  0  0  0  0
 15 35  1  0  0  0  0
 16 17  1  0  0  0  0
 16 36  1  0  0  0  0
 16 37  1  0  0  0  0
 17 38  1  0  0  0  0
 17 39  1  0  0  0  0
 18 19  1  0  0  0  0
 18 40  1  0  0  0  0
 19 20  1  0  0  0  0
 19 21  2  0  0  0  0
 20 41  1  0  0  0  0
 22 23  1  0  0  0  0
 22 42  1  0  0  0  0
 23 43  1  0  0  0  0
M  END
> <SMILES QCArchive>
[H]c1c(c(c(c(c1C(=O)N([H])[H])[H])[H])N([H])C(=O)C([H])([H])N2C(C(C(C(C2([H])[H])([H])[H])([H])N([H])C(=O)O[H])([H])[H])([H])[H])[H]

> <Energy QCArchive>
-692649.4642116203

> <Record QCArchive>
36954835

> <Compound Name>
BRI-01356-7

> <final_energy>
-692649.4642116203

$$$$
