BRI-01347-09
  -OEChem-11282313333D

 46 46  0     1  0  0  0  0  0999 V2000
   -6.2753    0.5464    8.1122 C   0  0  0  0  0  0  0  0  0  0  0  0
   -5.0856    1.3329    7.5483 C   0  0  0  0  0  0  0  0  0  0  0  0
   -4.2209    0.5402    6.5562 C   0  0  0  0  0  0  0  0  0  0  0  0
   -4.9513    0.0612    5.3129 C   0  0  0  0  0  0  0  0  0  0  0  0
   -5.4746    1.2337    4.6318 O   0  0  0  0  0  0  0  0  0  0  0  0
   -6.0507    0.9967    3.4469 C   0  0  0  0  0  0  0  0  0  0  0  0
   -6.1495   -0.0856    2.8988 O   0  0  0  0  0  0  0  0  0  0  0  0
   -6.5048    2.1655    2.9602 O   0  0  0  0  0  0  0  0  0  0  0  0
   -7.1164    2.0819    1.6491 C   0  0  0  0  0  0  0  0  0  0  0  0
   -7.6239    3.4673    1.2748 C   0  0  0  0  0  0  0  0  0  0  0  0
   -6.5842    4.5990    1.3047 C   0  0  0  0  0  0  0  0  0  0  0  0
   -5.3484    4.4378    0.4117 C   0  0  2  0  0  0  0  0  0  0  0  0
   -5.6398    4.0874   -1.0406 C   0  0  0  0  0  0  0  0  0  0  0  0
   -4.4933    3.3675    0.9235 O   0  0  0  0  0  0  0  0  0  0  0  0
   -3.7057    3.6718    1.9808 C   0  0  0  0  0  0  0  0  0  0  0  0
   -3.5977    4.7937    2.4472 O   0  0  0  0  0  0  0  0  0  0  0  0
   -2.9882    2.4803    2.5136 C   0  0  0  0  0  0  0  0  0  0  0  0
   -2.1398    2.6623    3.6145 C   0  0  0  0  0  0  0  0  0  0  0  0
   -1.4796    1.5769    4.1851 C   0  0  0  0  0  0  0  0  0  0  0  0
   -1.6808    0.3023    3.6468 C   0  0  0  0  0  0  0  0  0  0  0  0
   -0.8976   -1.0771    4.3948 Cl  0  0  0  0  0  0  0  0  0  0  0  0
   -2.5140    0.1012    2.5443 C   0  0  0  0  0  0  0  0  0  0  0  0
   -3.1648    1.1974    1.9784 C   0  0  0  0  0  0  0  0  0  0  0  0
   -6.8064    1.1320    8.8699 H   0  0  0  0  0  0  0  0  0  0  0  0
   -7.0004    0.2912    7.3324 H   0  0  0  0  0  0  0  0  0  0  0  0
   -5.9479   -0.3885    8.5829 H   0  0  0  0  0  0  0  0  0  0  0  0
   -4.4434    1.6585    8.3755 H   0  0  0  0  0  0  0  0  0  0  0  0
   -5.4461    2.2441    7.0590 H   0  0  0  0  0  0  0  0  0  0  0  0
   -3.3689    1.1518    6.2416 H   0  0  0  0  0  0  0  0  0  0  0  0
   -3.8067   -0.3503    7.0470 H   0  0  0  0  0  0  0  0  0  0  0  0
   -5.7880   -0.6023    5.5486 H   0  0  0  0  0  0  0  0  0  0  0  0
   -4.2799   -0.4679    4.6347 H   0  0  0  0  0  0  0  0  0  0  0  0
   -7.9381    1.3614    1.6877 H   0  0  0  0  0  0  0  0  0  0  0  0
   -6.3706    1.7116    0.9435 H   0  0  0  0  0  0  0  0  0  0  0  0
   -8.0741    3.3843    0.2783 H   0  0  0  0  0  0  0  0  0  0  0  0
   -8.4374    3.7377    1.9575 H   0  0  0  0  0  0  0  0  0  0  0  0
   -7.0806    5.5282    0.9984 H   0  0  0  0  0  0  0  0  0  0  0  0
   -6.2422    4.7594    2.3300 H   0  0  0  0  0  0  0  0  0  0  0  0
   -4.7702    5.3633    0.4644 H   0  0  0  0  0  0  0  0  0  0  0  0
   -6.2951    4.8457   -1.4810 H   0  0  0  0  0  0  0  0  0  0  0  0
   -4.7122    4.0554   -1.6187 H   0  0  0  0  0  0  0  0  0  0  0  0
   -6.1312    3.1150   -1.1325 H   0  0  0  0  0  0  0  0  0  0  0  0
   -2.0189    3.6605    4.0227 H   0  0  0  0  0  0  0  0  0  0  0  0
   -0.8275    1.7087    5.0426 H   0  0  0  0  0  0  0  0  0  0  0  0
   -2.6681   -0.8974    2.1494 H   0  0  0  0  0  0  0  0  0  0  0  0
   -3.8253    1.0491    1.1323 H   0  0  0  0  0  0  0  0  0  0  0  0
  1  2  1  0  0  0  0
  1 24  1  0  0  0  0
  1 25  1  0  0  0  0
  1 26  1  0  0  0  0
  2  3  1  0  0  0  0
  2 27  1  0  0  0  0
  2 28  1  0  0  0  0
  3  4  1  0  0  0  0
  3 29  1  0  0  0  0
  3 30  1  0  0  0  0
  4  5  1  0  0  0  0
  4 31  1  0  0  0  0
  4 32  1  0  0  0  0
  5  6  1  0  0  0  0
  6  7  2  0  0  0  0
  6  8  1  0  0  0  0
  8  9  1  0  0  0  0
  9 10  1  0  0  0  0
  9 33  1  0  0  0  0
  9 34  1  0  0  0  0
 10 11  1  0  0  0  0
 10 35  1  0  0  0  0
 10 36  1  0  0  0  0
 11 12  1  0  0  0  0
 11 37  1  0  0  0  0
 11 38  1  0  0  0  0
 12 13  1  0  0  0  0
 12 14  1  0  0  0  0
 12 39  1  0  0  0  0
 13 40  1  0  0  0  0
 13 41  1  0  0  0  0
 13 42  1  0  0  0  0
 14 15  1  0  0  0  0
 15 16  2  0  0  0  0
 15 17  1  0  0  0  0
 17 18  1  0  0  0  0
 17 23  2  0  0  0  0
 18 19  2  0  0  0  0
 18 43  1  0  0  0  0
 19 20  1  0  0  0  0
 19 44  1  0  0  0  0
 20 21  1  0  0  0  0
 20 22  2  0  0  0  0
 22 23  1  0  0  0  0
 22 45  1  0  0  0  0
 23 46  1  0  0  0  0
M  END
> <SMILES QCArchive>
[H]c1c(c(c(c(c1C(=O)O[C@@]([H])(C([H])([H])[H])C([H])([H])C([H])([H])C([H])([H])OC(=O)OC([H])([H])C([H])([H])C([H])([H])C([H])([H])[H])[H])[H])Cl)[H]

> <Energy QCArchive>
-940144.7276494105

> <Record QCArchive>
36954929

> <Compound Name>
BRI-01347-9

> <final_energy>
-940144.7276494105

$$$$
