BRI-00959-05
  -OEChem-11282313333D

 38 39  0     1  0  0  0  0  0999 V2000
    1.0192    1.5229   -1.1596 O   0  5  0  0  0  0  0  0  0  0  0  0
    0.1937    0.9901   -0.4098 N   0  3  0  0  0  0  0  0  0  0  0  0
    0.1426   -0.2220   -0.1728 O   0  0  0  0  0  0  0  0  0  0  0  0
   -0.7975    1.8582    0.2461 C   0  0  0  0  0  0  0  0  0  0  0  0
   -0.7653    3.2307    0.0013 C   0  0  0  0  0  0  0  0  0  0  0  0
   -1.7143    4.0427    0.6242 C   0  0  0  0  0  0  0  0  0  0  0  0
   -2.6789    3.4960    1.4798 C   0  0  0  0  0  0  0  0  0  0  0  0
   -3.6920    4.3836    2.1781 C   0  0  0  0  0  0  0  0  0  0  0  0
   -5.0362    3.8083    2.1275 N   0  0  2  0  0  0  0  0  0  0  0  0
   -5.6294    3.8447    0.7803 C   0  0  0  0  0  0  0  0  0  0  0  0
   -6.8170    2.9178    0.6579 C   0  0  0  0  0  0  0  0  0  0  0  0
   -6.6437    1.5344    0.8138 C   0  0  0  0  0  0  0  0  0  0  0  0
   -7.7230    0.6573    0.7101 C   0  0  0  0  0  0  0  0  0  0  0  0
   -8.9957    1.1742    0.4477 C   0  0  0  0  0  0  0  0  0  0  0  0
  -10.3613    0.0782    0.3161 Cl  0  0  0  0  0  0  0  0  0  0  0  0
   -9.1957    2.5451    0.2892 C   0  0  0  0  0  0  0  0  0  0  0  0
   -8.1006    3.4091    0.3979 C   0  0  0  0  0  0  0  0  0  0  0  0
   -5.9146    4.1400    3.2281 C   0  0  0  0  0  0  0  0  0  0  0  0
   -6.3626    5.5984    3.3670 C   0  0  0  0  0  0  0  0  0  0  0  0
   -7.0758    6.0329    2.2946 F   0  0  0  0  0  0  0  0  0  0  0  0
   -5.3139    6.4507    3.5090 F   0  0  0  0  0  0  0  0  0  0  0  0
   -7.1514    5.7472    4.4589 F   0  0  0  0  0  0  0  0  0  0  0  0
   -2.6853    2.1104    1.7056 C   0  0  0  0  0  0  0  0  0  0  0  0
   -1.7477    1.2830    1.0944 C   0  0  0  0  0  0  0  0  0  0  0  0
   -0.0164    3.6394   -0.6671 H   0  0  0  0  0  0  0  0  0  0  0  0
   -1.7065    5.1134    0.4356 H   0  0  0  0  0  0  0  0  0  0  0  0
   -3.6462    5.3978    1.7527 H   0  0  0  0  0  0  0  0  0  0  0  0
   -3.4062    4.4803    3.2312 H   0  0  0  0  0  0  0  0  0  0  0  0
   -4.8462    3.5149    0.0903 H   0  0  0  0  0  0  0  0  0  0  0  0
   -5.9119    4.8628    0.4764 H   0  0  0  0  0  0  0  0  0  0  0  0
   -5.6514    1.1417    1.0196 H   0  0  0  0  0  0  0  0  0  0  0  0
   -7.5844   -0.4131    0.8258 H   0  0  0  0  0  0  0  0  0  0  0  0
  -10.1899    2.9317    0.0887 H   0  0  0  0  0  0  0  0  0  0  0  0
   -8.2556    4.4789    0.2850 H   0  0  0  0  0  0  0  0  0  0  0  0
   -5.4266    3.8827    4.1734 H   0  0  0  0  0  0  0  0  0  0  0  0
   -6.8277    3.5434    3.1555 H   0  0  0  0  0  0  0  0  0  0  0  0
   -3.4415    1.6885    2.3608 H   0  0  0  0  0  0  0  0  0  0  0  0
   -1.7378    0.2120    1.2603 H   0  0  0  0  0  0  0  0  0  0  0  0
  1  2  1  0  0  0  0
  2  3  2  0  0  0  0
  2  4  1  0  0  0  0
  4  5  1  0  0  0  0
  4 24  2  0  0  0  0
  5  6  2  0  0  0  0
  5 25  1  0  0  0  0
  6  7  1  0  0  0  0
  6 26  1  0  0  0  0
  7  8  1  0  0  0  0
  7 23  2  0  0  0  0
  8  9  1  0  0  0  0
  8 27  1  0  0  0  0
  8 28  1  0  0  0  0
  9 10  1  0  0  0  0
  9 18  1  0  0  0  0
 10 11  1  0  0  0  0
 10 29  1  0  0  0  0
 10 30  1  0  0  0  0
 11 12  1  0  0  0  0
 11 17  2  0  0  0  0
 12 13  2  0  0  0  0
 12 31  1  0  0  0  0
 13 14  1  0  0  0  0
 13 32  1  0  0  0  0
 14 15  1  0  0  0  0
 14 16  2  0  0  0  0
 16 17  1  0  0  0  0
 16 33  1  0  0  0  0
 17 34  1  0  0  0  0
 18 19  1  0  0  0  0
 18 35  1  0  0  0  0
 18 36  1  0  0  0  0
 19 20  1  0  0  0  0
 19 21  1  0  0  0  0
 19 22  1  0  0  0  0
 23 24  1  0  0  0  0
 23 37  1  0  0  0  0
 24 38  1  0  0  0  0
M  CHG  2   1  -1   2   1
M  END
> <SMILES QCArchive>
[H]c1c(c(c(c(c1C([H])([H])N(C([H])([H])c2c(c(c(c(c2[H])[H])Cl)[H])[H])C([H])([H])C(F)(F)F)[H])[H])[N+](=O)[O-])[H]

> <Energy QCArchive>
-1027817.8034802129

> <Record QCArchive>
36954908

> <Compound Name>
BRI-00959-5

> <final_energy>
-1027817.8034802129

$$$$
