BRI-00505-00
  -OEChem-11282313333D

 34 36  0     0  0  0  0  0  0999 V2000
    3.8804    4.2059    1.1859 C   0  0  0  0  0  0  0  0  0  0  0  0
    2.5660    4.1613    0.5539 N   0  0  0  0  0  0  0  0  0  0  0  0
    1.8129    5.2513    0.2296 C   0  0  0  0  0  0  0  0  0  0  0  0
    0.6641    4.9237   -0.3402 N   0  0  0  0  0  0  0  0  0  0  0  0
    0.6569    3.5506   -0.3968 C   0  0  0  0  0  0  0  0  0  0  0  0
   -0.4981    2.7973   -0.9818 C   0  0  0  0  0  0  0  0  0  0  0  0
    1.8333    3.0450    0.1542 C   0  0  0  0  0  0  0  0  0  0  0  0
    2.2694    1.6737    0.3144 C   0  0  0  0  0  0  0  0  0  0  0  0
    1.6830    0.5114   -0.1653 C   0  0  0  0  0  0  0  0  0  0  0  0
    2.4956   -0.4936    0.2739 N   0  0  0  0  0  0  0  0  0  0  0  0
    3.5357    0.0125    0.9882 N   0  0  0  0  0  0  0  0  0  0  0  0
    3.4006    1.3074    1.0149 N   0  0  0  0  0  0  0  0  0  0  0  0
    2.3742   -1.8925    0.0792 C   0  0  0  0  0  0  0  0  0  0  0  0
    3.4997   -2.7109    0.2550 C   0  0  0  0  0  0  0  0  0  0  0  0
    3.3827   -4.0840    0.0519 C   0  0  0  0  0  0  0  0  0  0  0  0
    2.1585   -4.6494   -0.3181 C   0  0  0  0  0  0  0  0  0  0  0  0
    1.0349   -3.8273   -0.4816 C   0  0  0  0  0  0  0  0  0  0  0  0
    1.1480   -2.4449   -0.2890 C   0  0  0  0  0  0  0  0  0  0  0  0
   -0.3157   -4.3457   -0.8866 C   0  0  0  0  0  0  0  0  0  0  0  0
   -0.5639   -5.6660   -0.6591 O   0  0  0  0  0  0  0  0  0  0  0  0
   -1.1666   -3.6475   -1.3918 O   0  0  0  0  0  0  0  0  0  0  0  0
    3.8609    3.7087    2.1567 H   0  0  0  0  0  0  0  0  0  0  0  0
    4.6243    3.7072    0.5621 H   0  0  0  0  0  0  0  0  0  0  0  0
    4.1564    5.2546    1.3139 H   0  0  0  0  0  0  0  0  0  0  0  0
    2.1511    6.2597    0.4337 H   0  0  0  0  0  0  0  0  0  0  0  0
   -0.2228    2.2788   -1.9089 H   0  0  0  0  0  0  0  0  0  0  0  0
   -1.3012    3.4991   -1.2161 H   0  0  0  0  0  0  0  0  0  0  0  0
   -0.8901    2.0470   -0.2847 H   0  0  0  0  0  0  0  0  0  0  0  0
    0.8184    0.3386   -0.7837 H   0  0  0  0  0  0  0  0  0  0  0  0
    4.4440   -2.2625    0.5405 H   0  0  0  0  0  0  0  0  0  0  0  0
    4.2575   -4.7170    0.1683 H   0  0  0  0  0  0  0  0  0  0  0  0
    2.1117   -5.7179   -0.5146 H   0  0  0  0  0  0  0  0  0  0  0  0
    0.2614   -1.8349   -0.4199 H   0  0  0  0  0  0  0  0  0  0  0  0
    0.1428   -6.0549   -0.1173 H   0  0  0  0  0  0  0  0  0  0  0  0
  1  2  1  0  0  0  0
  1 22  1  0  0  0  0
  1 23  1  0  0  0  0
  1 24  1  0  0  0  0
  2  3  1  0  0  0  0
  2  7  1  0  0  0  0
  3  4  2  0  0  0  0
  3 25  1  0  0  0  0
  4  5  1  0  0  0  0
  5  6  1  0  0  0  0
  5  7  2  0  0  0  0
  6 26  1  0  0  0  0
  6 27  1  0  0  0  0
  6 28  1  0  0  0  0
  7  8  1  0  0  0  0
  8  9  2  0  0  0  0
  8 12  1  0  0  0  0
  9 10  1  0  0  0  0
  9 29  1  0  0  0  0
 10 11  1  0  0  0  0
 10 13  1  0  0  0  0
 11 12  2  0  0  0  0
 13 14  1  0  0  0  0
 13 18  2  0  0  0  0
 14 15  2  0  0  0  0
 14 30  1  0  0  0  0
 15 16  1  0  0  0  0
 15 31  1  0  0  0  0
 16 17  2  0  0  0  0
 16 32  1  0  0  0  0
 17 18  1  0  0  0  0
 17 19  1  0  0  0  0
 18 33  1  0  0  0  0
 19 20  1  0  0  0  0
 19 21  2  0  0  0  0
 20 34  1  0  0  0  0
M  END
> <SMILES QCArchive>
[H]c1c(c(c(c(c1[H])N2C(=C(N=N2)C3=C(N=C(N3C([H])([H])[H])[H])C([H])([H])[H])[H])[H])C(=O)O[H])[H]

> <Energy QCArchive>
-605972.0554045205

> <Record QCArchive>
36954930

> <Compound Name>
BRI-00505-0

> <final_energy>
-605972.0554045205

$$$$
