BRI-01064-03
  -OEChem-11282313333D

 57 58  0     1  0  0  0  0  0999 V2000
   -1.7969    1.1886    2.6543 C   0  0  0  0  0  0  0  0  0  0  0  0
   -3.1377    1.0704    1.9154 C   0  0  0  0  0  0  0  0  0  0  0  0
   -3.0605    1.4565    0.4290 C   0  0  0  0  0  0  0  0  0  0  0  0
   -2.0280    0.6735   -0.4079 C   0  0  1  0  0  0  0  0  0  0  0  0
   -1.0777    0.7272    0.1223 H   0  0  0  0  0  0  0  0  0  0  0  0
   -2.3974   -0.8200   -0.4870 C   0  0  0  0  0  0  0  0  0  0  0  0
   -1.3221   -1.6884   -1.1020 C   0  0  0  0  0  0  0  0  0  0  0  0
   -0.1247   -1.4602   -1.0516 O   0  0  0  0  0  0  0  0  0  0  0  0
   -1.8516   -2.7873   -1.6790 O   0  0  0  0  0  0  0  0  0  0  0  0
   -0.9190   -3.7174   -2.2867 C   0  0  0  0  0  0  0  0  0  0  0  0
   -0.3329   -4.6712   -1.2555 C   0  0  0  0  0  0  0  0  0  0  0  0
   -1.7930    1.3501   -1.6905 N   0  0  1  0  0  0  0  0  0  0  0  0
   -0.3889    1.5447   -2.0534 C   0  0  0  0  0  0  0  0  0  0  0  0
    0.3490    2.3297   -0.9840 C   0  0  0  0  0  0  0  0  0  0  0  0
    1.4543    1.7786   -0.3260 C   0  0  0  0  0  0  0  0  0  0  0  0
    2.1159    2.4946    0.6794 C   0  0  0  0  0  0  0  0  0  0  0  0
    1.6739    3.7709    1.0379 C   0  0  0  0  0  0  0  0  0  0  0  0
    0.5657    4.3280    0.3854 C   0  0  0  0  0  0  0  0  0  0  0  0
   -0.0906    3.6097   -0.6154 C   0  0  0  0  0  0  0  0  0  0  0  0
   -2.7996    1.2127   -2.7438 C   0  0  1  0  0  0  0  0  0  0  0  0
   -3.7605    1.1826   -2.2199 H   0  0  0  0  0  0  0  0  0  0  0  0
   -2.8516    2.4574   -3.6478 C   0  0  0  0  0  0  0  0  0  0  0  0
   -2.7392   -0.0582   -3.5986 C   0  0  0  0  0  0  0  0  0  0  0  0
   -1.5979   -0.4096   -4.3372 C   0  0  0  0  0  0  0  0  0  0  0  0
   -1.5763   -1.5685   -5.1172 C   0  0  0  0  0  0  0  0  0  0  0  0
   -2.7015   -2.3969   -5.1844 C   0  0  0  0  0  0  0  0  0  0  0  0
   -3.8490   -2.0520   -4.4655 C   0  0  0  0  0  0  0  0  0  0  0  0
   -3.8613   -0.8934   -3.6843 C   0  0  0  0  0  0  0  0  0  0  0  0
   -1.3411    2.1712    2.4875 H   0  0  0  0  0  0  0  0  0  0  0  0
   -1.0749    0.4369    2.3191 H   0  0  0  0  0  0  0  0  0  0  0  0
   -1.9307    1.0551    3.7332 H   0  0  0  0  0  0  0  0  0  0  0  0
   -3.8709    1.7302    2.3955 H   0  0  0  0  0  0  0  0  0  0  0  0
   -3.5355    0.0543    2.0320 H   0  0  0  0  0  0  0  0  0  0  0  0
   -4.0587    1.3617   -0.0191 H   0  0  0  0  0  0  0  0  0  0  0  0
   -2.7821    2.5128    0.3525 H   0  0  0  0  0  0  0  0  0  0  0  0
   -2.5424   -1.2026    0.5312 H   0  0  0  0  0  0  0  0  0  0  0  0
   -3.3392   -0.9887   -1.0112 H   0  0  0  0  0  0  0  0  0  0  0  0
   -1.5185   -4.2441   -3.0309 H   0  0  0  0  0  0  0  0  0  0  0  0
   -0.1397   -3.1477   -2.7961 H   0  0  0  0  0  0  0  0  0  0  0  0
    0.3063   -5.4074   -1.7558 H   0  0  0  0  0  0  0  0  0  0  0  0
   -1.1274   -5.2092   -0.7289 H   0  0  0  0  0  0  0  0  0  0  0  0
    0.2738   -4.1293   -0.5260 H   0  0  0  0  0  0  0  0  0  0  0  0
   -0.3594    2.1172   -2.9850 H   0  0  0  0  0  0  0  0  0  0  0  0
    0.1465    0.6038   -2.2299 H   0  0  0  0  0  0  0  0  0  0  0  0
    1.7781    0.7735   -0.5850 H   0  0  0  0  0  0  0  0  0  0  0  0
    2.9684    2.0511    1.1881 H   0  0  0  0  0  0  0  0  0  0  0  0
    2.1830    4.3266    1.8214 H   0  0  0  0  0  0  0  0  0  0  0  0
    0.2158    5.3202    0.6608 H   0  0  0  0  0  0  0  0  0  0  0  0
   -0.9635    4.0292   -1.1100 H   0  0  0  0  0  0  0  0  0  0  0  0
   -2.9273    3.3613   -3.0353 H   0  0  0  0  0  0  0  0  0  0  0  0
   -3.7216    2.3998   -4.3093 H   0  0  0  0  0  0  0  0  0  0  0  0
   -1.9686    2.5429   -4.2875 H   0  0  0  0  0  0  0  0  0  0  0  0
   -0.7160    0.2207   -4.3101 H   0  0  0  0  0  0  0  0  0  0  0  0
   -0.6794   -1.8234   -5.6766 H   0  0  0  0  0  0  0  0  0  0  0  0
   -2.6840   -3.2978   -5.7929 H   0  0  0  0  0  0  0  0  0  0  0  0
   -4.7315   -2.6857   -4.5082 H   0  0  0  0  0  0  0  0  0  0  0  0
   -4.7599   -0.6370   -3.1253 H   0  0  0  0  0  0  0  0  0  0  0  0
  1  2  1  0  0  0  0
  1 29  1  0  0  0  0
  1 30  1  0  0  0  0
  1 31  1  0  0  0  0
  2  3  1  0  0  0  0
  2 32  1  0  0  0  0
  2 33  1  0  0  0  0
  3  4  1  0  0  0  0
  3 34  1  0  0  0  0
  3 35  1  0  0  0  0
  4  5  1  0  0  0  0
  4  6  1  0  0  0  0
  4 12  1  0  0  0  0
  6  7  1  0  0  0  0
  6 36  1  0  0  0  0
  6 37  1  0  0  0  0
  7  8  2  0  0  0  0
  7  9  1  0  0  0  0
  9 10  1  0  0  0  0
 10 11  1  0  0  0  0
 10 38  1  0  0  0  0
 10 39  1  0  0  0  0
 11 40  1  0  0  0  0
 11 41  1  0  0  0  0
 11 42  1  0  0  0  0
 12 13  1  0  0  0  0
 12 20  1  0  0  0  0
 13 14  1  0  0  0  0
 13 43  1  0  0  0  0
 13 44  1  0  0  0  0
 14 15  1  0  0  0  0
 14 19  2  0  0  0  0
 15 16  2  0  0  0  0
 15 45  1  0  0  0  0
 16 17  1  0  0  0  0
 16 46  1  0  0  0  0
 17 18  2  0  0  0  0
 17 47  1  0  0  0  0
 18 19  1  0  0  0  0
 18 48  1  0  0  0  0
 19 49  1  0  0  0  0
 20 21  1  0  0  0  0
 20 22  1  0  0  0  0
 20 23  1  0  0  0  0
 22 50  1  0  0  0  0
 22 51  1  0  0  0  0
 22 52  1  0  0  0  0
 23 24  1  0  0  0  0
 23 28  2  0  0  0  0
 24 25  2  0  0  0  0
 24 53  1  0  0  0  0
 25 26  1  0  0  0  0
 25 54  1  0  0  0  0
 26 27  2  0  0  0  0
 26 55  1  0  0  0  0
 27 28  1  0  0  0  0
 27 56  1  0  0  0  0
 28 57  1  0  0  0  0
M  END
> <SMILES QCArchive>
[H]c1c(c(c(c(c1[H])[H])[C@]([H])(C([H])([H])[H])N([C@]([H])(C([H])([H])C(=O)OC([H])([H])C([H])([H])[H])C([H])([H])C([H])([H])C([H])([H])[H])C([H])([H])c2c(c(c(c(c2[H])[H])[H])[H])[H])[H])[H]

> <Energy QCArchive>
-690606.3214057126

> <Record QCArchive>
36954890

> <Compound Name>
BRI-01064-3

> <final_energy>
-690606.3214057126

$$$$
