BRI-00528-09
  -OEChem-11282313333D

 47 48  0     0  0  0  0  0  0999 V2000
    0.1013    5.3144    5.5756 C   0  0  0  0  0  0  0  0  0  0  0  0
   -1.1080    5.3801    4.6487 C   0  0  0  0  0  0  0  0  0  0  0  0
   -1.4866    6.7997    4.2502 C   0  0  0  0  0  0  0  0  0  0  0  0
   -0.8100    4.6828    3.4023 O   0  0  0  0  0  0  0  0  0  0  0  0
   -0.9528    3.3271    3.4188 C   0  0  0  0  0  0  0  0  0  0  0  0
   -1.3475    2.6736    4.3760 O   0  0  0  0  0  0  0  0  0  0  0  0
   -0.5864    2.8031    2.2147 N   0  0  0  0  0  0  0  0  0  0  0  0
   -0.7432    1.3781    1.9141 C   0  0  0  0  0  0  0  0  0  0  0  0
    0.0973    1.0171    0.6819 C   0  0  0  0  0  0  0  0  0  0  0  0
   -0.4864    1.5905   -0.6171 C   0  0  0  0  0  0  0  0  0  0  0  0
   -1.8954    1.2267   -0.7495 N   0  0  0  0  0  0  0  0  0  0  0  0
   -2.7552    1.5916    0.3791 C   0  0  0  0  0  0  0  0  0  0  0  0
   -2.2155    0.9938    1.6793 C   0  0  0  0  0  0  0  0  0  0  0  0
   -2.4588    0.7266   -1.8871 C   0  0  0  0  0  0  0  0  0  0  0  0
   -3.6557    0.4989   -2.0317 O   0  0  0  0  0  0  0  0  0  0  0  0
   -1.5225    0.4813   -2.8518 O   0  0  0  0  0  0  0  0  0  0  0  0
   -2.0429    0.0422   -4.1374 C   0  0  0  0  0  0  0  0  0  0  0  0
   -2.3821    1.2121   -5.0271 C   0  0  0  0  0  0  0  0  0  0  0  0
   -3.6566    1.7979   -4.9838 C   0  0  0  0  0  0  0  0  0  0  0  0
   -3.9565    2.8943   -5.7971 C   0  0  0  0  0  0  0  0  0  0  0  0
   -2.9879    3.4159   -6.6622 C   0  0  0  0  0  0  0  0  0  0  0  0
   -1.7156    2.8366   -6.7112 C   0  0  0  0  0  0  0  0  0  0  0  0
   -1.4172    1.7405   -5.8964 C   0  0  0  0  0  0  0  0  0  0  0  0
    0.3389    4.2774    5.8244 H   0  0  0  0  0  0  0  0  0  0  0  0
   -0.1108    5.8503    6.5070 H   0  0  0  0  0  0  0  0  0  0  0  0
    0.9732    5.7780    5.1017 H   0  0  0  0  0  0  0  0  0  0  0  0
   -1.9567    4.8728    5.1139 H   0  0  0  0  0  0  0  0  0  0  0  0
   -2.3457    6.7969    3.5729 H   0  0  0  0  0  0  0  0  0  0  0  0
   -0.6508    7.2987    3.7489 H   0  0  0  0  0  0  0  0  0  0  0  0
   -1.7494    7.3797    5.1405 H   0  0  0  0  0  0  0  0  0  0  0  0
   -0.3459    3.4582    1.4836 H   0  0  0  0  0  0  0  0  0  0  0  0
   -0.3707    0.8306    2.7838 H   0  0  0  0  0  0  0  0  0  0  0  0
    1.1274    1.3677    0.8111 H   0  0  0  0  0  0  0  0  0  0  0  0
    0.1270   -0.0740    0.5963 H   0  0  0  0  0  0  0  0  0  0  0  0
    0.0627    1.2162   -1.4777 H   0  0  0  0  0  0  0  0  0  0  0  0
   -0.3968    2.6884   -0.6336 H   0  0  0  0  0  0  0  0  0  0  0  0
   -2.7984    2.6878    0.4575 H   0  0  0  0  0  0  0  0  0  0  0  0
   -3.7611    1.2346    0.1646 H   0  0  0  0  0  0  0  0  0  0  0  0
   -2.8170    1.3296    2.5284 H   0  0  0  0  0  0  0  0  0  0  0  0
   -2.2895   -0.0991    1.6315 H   0  0  0  0  0  0  0  0  0  0  0  0
   -2.9095   -0.5968   -3.9652 H   0  0  0  0  0  0  0  0  0  0  0  0
   -1.2295   -0.5491   -4.5617 H   0  0  0  0  0  0  0  0  0  0  0  0
   -4.3996    1.3976   -4.3005 H   0  0  0  0  0  0  0  0  0  0  0  0
   -4.9468    3.3411   -5.7576 H   0  0  0  0  0  0  0  0  0  0  0  0
   -3.2240    4.2669   -7.2963 H   0  0  0  0  0  0  0  0  0  0  0  0
   -0.9604    3.2352   -7.3839 H   0  0  0  0  0  0  0  0  0  0  0  0
   -0.4274    1.2900   -5.9367 H   0  0  0  0  0  0  0  0  0  0  0  0
  1  2  1  0  0  0  0
  1 24  1  0  0  0  0
  1 25  1  0  0  0  0
  1 26  1  0  0  0  0
  2  3  1  0  0  0  0
  2  4  1  0  0  0  0
  2 27  1  0  0  0  0
  3 28  1  0  0  0  0
  3 29  1  0  0  0  0
  3 30  1  0  0  0  0
  4  5  1  0  0  0  0
  5  6  2  0  0  0  0
  5  7  1  0  0  0  0
  7  8  1  0  0  0  0
  7 31  1  0  0  0  0
  8  9  1  0  0  0  0
  8 13  1  0  0  0  0
  8 32  1  0  0  0  0
  9 10  1  0  0  0  0
  9 33  1  0  0  0  0
  9 34  1  0  0  0  0
 10 11  1  0  0  0  0
 10 35  1  0  0  0  0
 10 36  1  0  0  0  0
 11 12  1  0  0  0  0
 11 14  1  0  0  0  0
 12 13  1  0  0  0  0
 12 37  1  0  0  0  0
 12 38  1  0  0  0  0
 13 39  1  0  0  0  0
 13 40  1  0  0  0  0
 14 15  2  0  0  0  0
 14 16  1  0  0  0  0
 16 17  1  0  0  0  0
 17 18  1  0  0  0  0
 17 41  1  0  0  0  0
 17 42  1  0  0  0  0
 18 19  1  0  0  0  0
 18 23  2  0  0  0  0
 19 20  2  0  0  0  0
 19 43  1  0  0  0  0
 20 21  1  0  0  0  0
 20 44  1  0  0  0  0
 21 22  2  0  0  0  0
 21 45  1  0  0  0  0
 22 23  1  0  0  0  0
 22 46  1  0  0  0  0
 23 47  1  0  0  0  0
M  END
> <SMILES QCArchive>
[H]c1c(c(c(c(c1[H])[H])C([H])([H])OC(=O)N2C(C(C(C(C2([H])[H])([H])[H])([H])N([H])C(=O)OC([H])(C([H])([H])[H])C([H])([H])[H])([H])[H])([H])[H])[H])[H]

> <Energy QCArchive>
-673280.0194157683

> <Record QCArchive>
36954919

> <Compound Name>
BRI-00528-9

> <final_energy>
-673280.0194157683

$$$$
