BRI-00226-04
  -OEChem-11282313333D

 60 63  0     1  0  0  0  0  0999 V2000
    0.1964    2.6288    7.2559 O   0  0  0  0  0  0  0  0  0  0  0  0
   -0.7662    1.7263    6.8807 C   0  0  0  0  0  0  0  0  0  0  0  0
   -1.9127    2.0892    6.7050 O   0  0  0  0  0  0  0  0  0  0  0  0
   -0.3364    0.4319    6.7197 N   0  0  0  0  0  0  0  0  0  0  0  0
    0.9815   -0.0972    7.0989 C   0  0  0  0  0  0  0  0  0  0  0  0
    0.8591   -1.6011    6.8080 C   0  0  0  0  0  0  0  0  0  0  0  0
   -0.6363   -1.8751    7.0208 C   0  0  0  0  0  0  0  0  0  0  0  0
   -1.3147   -0.6234    6.4207 C   0  0  2  0  0  0  0  0  0  0  0  0
   -2.2502   -0.3892    6.9343 H   0  0  0  0  0  0  0  0  0  0  0  0
   -1.6048   -0.7731    4.9338 C   0  0  0  0  0  0  0  0  0  0  0  0
   -0.8080   -0.1798    3.9514 C   0  0  0  0  0  0  0  0  0  0  0  0
   -1.1005   -0.3630    2.5950 C   0  0  0  0  0  0  0  0  0  0  0  0
   -2.1878   -1.1423    2.2074 C   0  0  0  0  0  0  0  0  0  0  0  0
   -2.9909   -1.7559    3.1806 C   0  0  0  0  0  0  0  0  0  0  0  0
   -2.6966   -1.5551    4.5358 C   0  0  0  0  0  0  0  0  0  0  0  0
   -4.1586   -2.5707    2.6933 C   0  0  0  0  0  0  0  0  0  0  0  0
   -4.6498   -2.3823    1.5809 O   0  0  0  0  0  0  0  0  0  0  0  0
   -4.6030   -3.5318    3.5730 N   0  0  0  0  0  0  0  0  0  0  0  0
   -5.6775   -4.4385    3.4306 C   0  0  0  0  0  0  0  0  0  0  0  0
   -6.5694   -4.4254    2.3474 C   0  0  0  0  0  0  0  0  0  0  0  0
   -7.6102   -5.3575    2.3097 C   0  0  0  0  0  0  0  0  0  0  0  0
   -7.7984   -6.3127    3.3166 C   0  0  0  0  0  0  0  0  0  0  0  0
   -8.8987   -7.3415    3.2161 C   0  0  0  0  0  0  0  0  0  0  0  0
   -8.3906   -8.7134    2.7252 C   0  0  0  0  0  0  0  0  0  0  0  0
   -7.5204   -9.3570    3.7135 N   0  0  0  0  0  0  0  0  0  0  0  0
   -6.4487  -10.1879    3.1555 C   0  0  0  0  0  0  0  0  0  0  0  0
   -6.9403  -11.5597    2.6871 C   0  0  0  0  0  0  0  0  0  0  0  0
   -7.5995  -12.2501    3.7527 O   0  0  0  0  0  0  0  0  0  0  0  0
   -8.7015  -11.4922    4.2569 C   0  0  0  0  0  0  0  0  0  0  0  0
   -8.2451  -10.1123    4.7434 C   0  0  0  0  0  0  0  0  0  0  0  0
   -6.8963   -6.3117    4.3919 C   0  0  0  0  0  0  0  0  0  0  0  0
   -5.8543   -5.3900    4.4506 C   0  0  0  0  0  0  0  0  0  0  0  0
    1.0696    2.2101    7.3251 H   0  0  0  0  0  0  0  0  0  0  0  0
    1.7881    0.3583    6.5096 H   0  0  0  0  0  0  0  0  0  0  0  0
    1.1842    0.0795    8.1649 H   0  0  0  0  0  0  0  0  0  0  0  0
    1.5059   -2.1983    7.4548 H   0  0  0  0  0  0  0  0  0  0  0  0
    1.1336   -1.8031    5.7686 H   0  0  0  0  0  0  0  0  0  0  0  0
   -0.8627   -1.9345    8.0910 H   0  0  0  0  0  0  0  0  0  0  0  0
   -0.9729   -2.7984    6.5451 H   0  0  0  0  0  0  0  0  0  0  0  0
    0.0257    0.4505    4.2465 H   0  0  0  0  0  0  0  0  0  0  0  0
   -0.4815    0.1152    1.8404 H   0  0  0  0  0  0  0  0  0  0  0  0
   -2.4424   -1.2801    1.1615 H   0  0  0  0  0  0  0  0  0  0  0  0
   -3.3466   -1.9632    5.3084 H   0  0  0  0  0  0  0  0  0  0  0  0
   -4.0428   -3.6700    4.4029 H   0  0  0  0  0  0  0  0  0  0  0  0
   -6.4427   -3.6995    1.5564 H   0  0  0  0  0  0  0  0  0  0  0  0
   -8.2957   -5.3333    1.4647 H   0  0  0  0  0  0  0  0  0  0  0  0
   -9.3926   -7.4678    4.1865 H   0  0  0  0  0  0  0  0  0  0  0  0
   -9.6688   -6.9928    2.5186 H   0  0  0  0  0  0  0  0  0  0  0  0
   -7.8141   -8.5584    1.8078 H   0  0  0  0  0  0  0  0  0  0  0  0
   -9.2582   -9.3347    2.4476 H   0  0  0  0  0  0  0  0  0  0  0  0
   -5.6966  -10.3390    3.9407 H   0  0  0  0  0  0  0  0  0  0  0  0
   -5.9644   -9.6484    2.3351 H   0  0  0  0  0  0  0  0  0  0  0  0
   -6.1051  -12.1968    2.3810 H   0  0  0  0  0  0  0  0  0  0  0  0
   -7.6270  -11.4543    1.8314 H   0  0  0  0  0  0  0  0  0  0  0  0
   -9.4708  -11.3943    3.4743 H   0  0  0  0  0  0  0  0  0  0  0  0
   -9.1250  -12.0766    5.0791 H   0  0  0  0  0  0  0  0  0  0  0  0
   -7.5756  -10.2475    5.6025 H   0  0  0  0  0  0  0  0  0  0  0  0
   -9.1063   -9.5300    5.0885 H   0  0  0  0  0  0  0  0  0  0  0  0
   -7.0057   -7.0490    5.1808 H   0  0  0  0  0  0  0  0  0  0  0  0
   -5.1689   -5.4067    5.2971 H   0  0  0  0  0  0  0  0  0  0  0  0
  1  2  1  0  0  0  0
  1 33  1  0  0  0  0
  2  3  2  0  0  0  0
  2  4  1  0  0  0  0
  4  5  1  0  0  0  0
  4  8  1  0  0  0  0
  5  6  1  0  0  0  0
  5 34  1  0  0  0  0
  5 35  1  0  0  0  0
  6  7  1  0  0  0  0
  6 36  1  0  0  0  0
  6 37  1  0  0  0  0
  7  8  1  0  0  0  0
  7 38  1  0  0  0  0
  7 39  1  0  0  0  0
  8  9  1  0  0  0  0
  8 10  1  0  0  0  0
 10 11  1  0  0  0  0
 10 15  2  0  0  0  0
 11 12  2  0  0  0  0
 11 40  1  0  0  0  0
 12 13  1  0  0  0  0
 12 41  1  0  0  0  0
 13 14  2  0  0  0  0
 13 42  1  0  0  0  0
 14 15  1  0  0  0  0
 14 16  1  0  0  0  0
 15 43  1  0  0  0  0
 16 17  2  0  0  0  0
 16 18  1  0  0  0  0
 18 19  1  0  0  0  0
 18 44  1  0  0  0  0
 19 20  1  0  0  0  0
 19 32  2  0  0  0  0
 20 21  2  0  0  0  0
 20 45  1  0  0  0  0
 21 22  1  0  0  0  0
 21 46  1  0  0  0  0
 22 23  1  0  0  0  0
 22 31  2  0  0  0  0
 23 24  1  0  0  0  0
 23 47  1  0  0  0  0
 23 48  1  0  0  0  0
 24 25  1  0  0  0  0
 24 49  1  0  0  0  0
 24 50  1  0  0  0  0
 25 26  1  0  0  0  0
 25 30  1  0  0  0  0
 26 27  1  0  0  0  0
 26 51  1  0  0  0  0
 26 52  1  0  0  0  0
 27 28  1  0  0  0  0
 27 53  1  0  0  0  0
 27 54  1  0  0  0  0
 28 29  1  0  0  0  0
 29 30  1  0  0  0  0
 29 55  1  0  0  0  0
 29 56  1  0  0  0  0
 30 57  1  0  0  0  0
 30 58  1  0  0  0  0
 31 32  1  0  0  0  0
 31 59  1  0  0  0  0
 32 60  1  0  0  0  0
M  END
> <SMILES QCArchive>
[H]c1c(c(c(c(c1[H])[C@]2(C(C(C(N2C(=O)O[H])([H])[H])([H])[H])([H])[H])[H])[H])C(=O)N([H])c3c(c(c(c(c3[H])[H])C([H])([H])C([H])([H])N4C(C(OC(C4([H])[H])([H])[H])([H])[H])([H])[H])[H])[H])[H]

> <Energy QCArchive>
-876921.5488327091

> <Record QCArchive>
36954850

> <Compound Name>
BRI-00226-4

> <final_energy>
-876921.5488327091

$$$$
