BRI-00226-05
  -OEChem-11282313333D

 60 63  0     1  0  0  0  0  0999 V2000
    0.1065   -3.4530    7.8278 O   0  0  0  0  0  0  0  0  0  0  0  0
    0.3836   -2.6637    6.7399 C   0  0  0  0  0  0  0  0  0  0  0  0
    1.2547   -2.9428    5.9272 O   0  0  0  0  0  0  0  0  0  0  0  0
   -0.4235   -1.5732    6.6835 N   0  0  0  0  0  0  0  0  0  0  0  0
   -1.2617   -1.0825    7.7884 C   0  0  0  0  0  0  0  0  0  0  0  0
   -1.2113    0.4392    7.6013 C   0  0  0  0  0  0  0  0  0  0  0  0
   -1.1277    0.5940    6.0766 C   0  0  0  0  0  0  0  0  0  0  0  0
   -0.2140   -0.5701    5.6245 C   0  0  2  0  0  0  0  0  0  0  0  0
    0.8359   -0.2557    5.6375 H   0  0  0  0  0  0  0  0  0  0  0  0
   -0.5461   -1.0723    4.2337 C   0  0  0  0  0  0  0  0  0  0  0  0
    0.1861   -0.6223    3.1317 C   0  0  0  0  0  0  0  0  0  0  0  0
   -0.1458   -1.0438    1.8401 C   0  0  0  0  0  0  0  0  0  0  0  0
   -1.2111   -1.9197    1.6394 C   0  0  0  0  0  0  0  0  0  0  0  0
   -1.9623   -2.3714    2.7343 C   0  0  0  0  0  0  0  0  0  0  0  0
   -1.6170   -1.9472    4.0248 C   0  0  0  0  0  0  0  0  0  0  0  0
   -3.0906   -3.3243    2.4457 C   0  0  0  0  0  0  0  0  0  0  0  0
   -3.1227   -3.9851    1.4080 O   0  0  0  0  0  0  0  0  0  0  0  0
   -4.0687   -3.3752    3.4139 N   0  0  0  0  0  0  0  0  0  0  0  0
   -5.2328   -4.1736    3.4640 C   0  0  0  0  0  0  0  0  0  0  0  0
   -5.5659   -5.1304    2.4906 C   0  0  0  0  0  0  0  0  0  0  0  0
   -6.7382   -5.8752    2.6314 C   0  0  0  0  0  0  0  0  0  0  0  0
   -7.6067   -5.6996    3.7185 C   0  0  0  0  0  0  0  0  0  0  0  0
   -8.8459   -6.5464    3.8835 C   0  0  0  0  0  0  0  0  0  0  0  0
   -8.5386   -7.9658    4.4060 C   0  0  0  0  0  0  0  0  0  0  0  0
   -7.8107   -8.7641    3.4172 N   0  0  0  0  0  0  0  0  0  0  0  0
   -6.8657   -9.7391    3.9703 C   0  0  0  0  0  0  0  0  0  0  0  0
   -7.5519  -11.0052    4.4894 C   0  0  0  0  0  0  0  0  0  0  0  0
   -8.3437  -11.6086    3.4620 O   0  0  0  0  0  0  0  0  0  0  0  0
   -9.3262  -10.6985    2.9625 C   0  0  0  0  0  0  0  0  0  0  0  0
   -8.6729   -9.4198    2.4263 C   0  0  0  0  0  0  0  0  0  0  0  0
   -7.2595   -4.7396    4.6793 C   0  0  0  0  0  0  0  0  0  0  0  0
   -6.0926   -3.9862    4.5589 C   0  0  0  0  0  0  0  0  0  0  0  0
    0.7353   -4.1940    7.7620 H   0  0  0  0  0  0  0  0  0  0  0  0
   -2.2876   -1.4619    7.6920 H   0  0  0  0  0  0  0  0  0  0  0  0
   -0.8678   -1.4194    8.7479 H   0  0  0  0  0  0  0  0  0  0  0  0
   -0.3089    0.8400    8.0755 H   0  0  0  0  0  0  0  0  0  0  0  0
   -2.0777    0.9442    8.0366 H   0  0  0  0  0  0  0  0  0  0  0  0
   -0.7342    1.5601    5.7522 H   0  0  0  0  0  0  0  0  0  0  0  0
   -2.1191    0.4716    5.6281 H   0  0  0  0  0  0  0  0  0  0  0  0
    1.0332    0.0428    3.2850 H   0  0  0  0  0  0  0  0  0  0  0  0
    0.4374   -0.6973    0.9910 H   0  0  0  0  0  0  0  0  0  0  0  0
   -1.4720   -2.2762    0.6482 H   0  0  0  0  0  0  0  0  0  0  0  0
   -2.1339   -2.3368    4.8989 H   0  0  0  0  0  0  0  0  0  0  0  0
   -3.9837   -2.7074    4.1677 H   0  0  0  0  0  0  0  0  0  0  0  0
   -4.9134   -5.2769    1.6412 H   0  0  0  0  0  0  0  0  0  0  0  0
   -6.9790   -6.6215    1.8809 H   0  0  0  0  0  0  0  0  0  0  0  0
   -9.5330   -6.0644    4.5887 H   0  0  0  0  0  0  0  0  0  0  0  0
   -9.3829   -6.6233    2.9310 H   0  0  0  0  0  0  0  0  0  0  0  0
   -7.9150   -7.8755    5.3012 H   0  0  0  0  0  0  0  0  0  0  0  0
   -9.4824   -8.4363    4.7292 H   0  0  0  0  0  0  0  0  0  0  0  0
   -6.1699  -10.0237    3.1708 H   0  0  0  0  0  0  0  0  0  0  0  0
   -6.2789   -9.2632    4.7627 H   0  0  0  0  0  0  0  0  0  0  0  0
   -6.8179  -11.7584    4.7910 H   0  0  0  0  0  0  0  0  0  0  0  0
   -8.1875  -10.7728    5.3597 H   0  0  0  0  0  0  0  0  0  0  0  0
  -10.0485  -10.4616    3.7602 H   0  0  0  0  0  0  0  0  0  0  0  0
   -9.8589  -11.2287    2.1676 H   0  0  0  0  0  0  0  0  0  0  0  0
   -8.0569   -9.6784    1.5558 H   0  0  0  0  0  0  0  0  0  0  0  0
   -9.4417   -8.7179    2.0854 H   0  0  0  0  0  0  0  0  0  0  0  0
   -7.9102   -4.5738    5.5357 H   0  0  0  0  0  0  0  0  0  0  0  0
   -5.8483   -3.2451    5.3187 H   0  0  0  0  0  0  0  0  0  0  0  0
  1  2  1  0  0  0  0
  1 33  1  0  0  0  0
  2  3  2  0  0  0  0
  2  4  1  0  0  0  0
  4  5  1  0  0  0  0
  4  8  1  0  0  0  0
  5  6  1  0  0  0  0
  5 34  1  0  0  0  0
  5 35  1  0  0  0  0
  6  7  1  0  0  0  0
  6 36  1  0  0  0  0
  6 37  1  0  0  0  0
  7  8  1  0  0  0  0
  7 38  1  0  0  0  0
  7 39  1  0  0  0  0
  8  9  1  0  0  0  0
  8 10  1  0  0  0  0
 10 11  1  0  0  0  0
 10 15  2  0  0  0  0
 11 12  2  0  0  0  0
 11 40  1  0  0  0  0
 12 13  1  0  0  0  0
 12 41  1  0  0  0  0
 13 14  2  0  0  0  0
 13 42  1  0  0  0  0
 14 15  1  0  0  0  0
 14 16  1  0  0  0  0
 15 43  1  0  0  0  0
 16 17  2  0  0  0  0
 16 18  1  0  0  0  0
 18 19  1  0  0  0  0
 18 44  1  0  0  0  0
 19 20  1  0  0  0  0
 19 32  2  0  0  0  0
 20 21  2  0  0  0  0
 20 45  1  0  0  0  0
 21 22  1  0  0  0  0
 21 46  1  0  0  0  0
 22 23  1  0  0  0  0
 22 31  2  0  0  0  0
 23 24  1  0  0  0  0
 23 47  1  0  0  0  0
 23 48  1  0  0  0  0
 24 25  1  0  0  0  0
 24 49  1  0  0  0  0
 24 50  1  0  0  0  0
 25 26  1  0  0  0  0
 25 30  1  0  0  0  0
 26 27  1  0  0  0  0
 26 51  1  0  0  0  0
 26 52  1  0  0  0  0
 27 28  1  0  0  0  0
 27 53  1  0  0  0  0
 27 54  1  0  0  0  0
 28 29  1  0  0  0  0
 29 30  1  0  0  0  0
 29 55  1  0  0  0  0
 29 56  1  0  0  0  0
 30 57  1  0  0  0  0
 30 58  1  0  0  0  0
 31 32  1  0  0  0  0
 31 59  1  0  0  0  0
 32 60  1  0  0  0  0
M  END
> <SMILES QCArchive>
[H]c1c(c(c(c(c1[H])[C@]2(C(C(C(N2C(=O)O[H])([H])[H])([H])[H])([H])[H])[H])[H])C(=O)N([H])c3c(c(c(c(c3[H])[H])C([H])([H])C([H])([H])N4C(C(OC(C4([H])[H])([H])[H])([H])[H])([H])[H])[H])[H])[H]

> <Energy QCArchive>
-876928.7903959161

> <Record QCArchive>
36954851

> <Compound Name>
BRI-00226-5

> <final_energy>
-876928.7903959161

$$$$
