BRI-00386-04
  -OEChem-11282313333D

 40 42  0     1  0  0  0  0  0999 V2000
    2.6873   -2.2847   -1.0822 C   0  0  0  0  0  0  0  0  0  0  0  0
    3.3216   -1.3392   -1.9719 O   0  0  0  0  0  0  0  0  0  0  0  0
    2.5745   -1.0401   -3.0846 C   0  0  0  0  0  0  0  0  0  0  0  0
    2.8244   -1.6649   -4.3004 C   0  0  0  0  0  0  0  0  0  0  0  0
    2.1149   -1.4181   -5.4203 N   0  0  0  0  0  0  0  0  0  0  0  0
    1.1120   -0.5558   -5.2707 C   0  0  0  0  0  0  0  0  0  0  0  0
    0.7901    0.1298   -4.1688 N   0  0  0  0  0  0  0  0  0  0  0  0
    1.5299   -0.0683   -3.0631 C   0  0  0  0  0  0  0  0  0  0  0  0
    1.1919    0.6348   -1.9253 N   0  0  1  0  0  0  0  0  0  0  0  0
    2.2285    1.2263   -1.0640 C   0  0  0  0  0  0  0  0  0  0  0  0
    1.7556    1.2064    0.3857 C   0  0  0  0  0  0  0  0  0  0  0  0
    0.3652    1.7871    0.5219 C   0  0  0  0  0  0  0  0  0  0  0  0
   -0.1080    2.2235    1.7681 C   0  0  0  0  0  0  0  0  0  0  0  0
   -1.3869    2.7582    1.9135 C   0  0  0  0  0  0  0  0  0  0  0  0
   -2.1934    2.8542    0.7813 C   0  0  0  0  0  0  0  0  0  0  0  0
   -3.5167    3.3293    0.9206 O   0  0  0  0  0  0  0  0  0  0  0  0
   -3.7156    4.6548    0.7244 C   0  0  0  0  0  0  0  0  0  0  0  0
   -3.3799    5.0563   -0.5256 F   0  0  0  0  0  0  0  0  0  0  0  0
   -3.0051    5.4243    1.5832 F   0  0  0  0  0  0  0  0  0  0  0  0
   -5.0169    4.9067    0.9110 F   0  0  0  0  0  0  0  0  0  0  0  0
   -1.7563    2.4251   -0.4646 C   0  0  0  0  0  0  0  0  0  0  0  0
   -0.4699    1.8865   -0.6021 C   0  0  0  0  0  0  0  0  0  0  0  0
   -0.0261    1.4432   -1.9820 C   0  0  0  0  0  0  0  0  0  0  0  0
    3.8810   -2.7351   -4.3931 C   0  0  0  0  0  0  0  0  0  0  0  0
    4.7409   -2.5162   -5.4088 O   0  0  0  0  0  0  0  0  0  0  0  0
    3.9449   -3.6996   -3.6555 O   0  0  0  0  0  0  0  0  0  0  0  0
    2.6207   -3.2601   -1.5707 H   0  0  0  0  0  0  0  0  0  0  0  0
    3.3326   -2.3502   -0.2047 H   0  0  0  0  0  0  0  0  0  0  0  0
    1.6936   -1.9293   -0.7885 H   0  0  0  0  0  0  0  0  0  0  0  0
    0.4906   -0.3747   -6.1458 H   0  0  0  0  0  0  0  0  0  0  0  0
    3.1574    0.6746   -1.1750 H   0  0  0  0  0  0  0  0  0  0  0  0
    2.4048    2.2635   -1.3886 H   0  0  0  0  0  0  0  0  0  0  0  0
    2.4609    1.7676    1.0086 H   0  0  0  0  0  0  0  0  0  0  0  0
    1.7618    0.1719    0.7500 H   0  0  0  0  0  0  0  0  0  0  0  0
    0.5388    2.1454    2.6391 H   0  0  0  0  0  0  0  0  0  0  0  0
   -1.7583    3.0956    2.8757 H   0  0  0  0  0  0  0  0  0  0  0  0
   -2.4204    2.5063   -1.3208 H   0  0  0  0  0  0  0  0  0  0  0  0
    0.1236    2.3236   -2.6260 H   0  0  0  0  0  0  0  0  0  0  0  0
   -0.8119    0.8522   -2.4546 H   0  0  0  0  0  0  0  0  0  0  0  0
    5.3568   -3.2751   -5.4161 H   0  0  0  0  0  0  0  0  0  0  0  0
  1  2  1  0  0  0  0
  1 27  1  0  0  0  0
  1 28  1  0  0  0  0
  1 29  1  0  0  0  0
  2  3  1  0  0  0  0
  3  4  1  0  0  0  0
  3  8  2  0  0  0  0
  4  5  2  0  0  0  0
  4 24  1  0  0  0  0
  5  6  1  0  0  0  0
  6  7  2  0  0  0  0
  6 30  1  0  0  0  0
  7  8  1  0  0  0  0
  8  9  1  0  0  0  0
  9 10  1  0  0  0  0
  9 23  1  0  0  0  0
 10 11  1  0  0  0  0
 10 31  1  0  0  0  0
 10 32  1  0  0  0  0
 11 12  1  0  0  0  0
 11 33  1  0  0  0  0
 11 34  1  0  0  0  0
 12 13  1  0  0  0  0
 12 22  2  0  0  0  0
 13 14  2  0  0  0  0
 13 35  1  0  0  0  0
 14 15  1  0  0  0  0
 14 36  1  0  0  0  0
 15 16  1  0  0  0  0
 15 21  2  0  0  0  0
 16 17  1  0  0  0  0
 17 18  1  0  0  0  0
 17 19  1  0  0  0  0
 17 20  1  0  0  0  0
 21 22  1  0  0  0  0
 21 37  1  0  0  0  0
 22 23  1  0  0  0  0
 23 38  1  0  0  0  0
 23 39  1  0  0  0  0
 24 25  1  0  0  0  0
 24 26  2  0  0  0  0
 25 40  1  0  0  0  0
M  END
> <SMILES QCArchive>
[H]c1c(c(c(c2c1C(C(N(C2([H])[H])c3c(c(nc(n3)[H])C(=O)O[H])OC([H])([H])[H])([H])[H])([H])[H])[H])OC(F)(F)F)[H]

> <Energy QCArchive>
-867908.0024187762

> <Record QCArchive>
36954898

> <Compound Name>
BRI-00386-4

> <final_energy>
-867908.0024187762

$$$$
