BRI-00538-00
  -OEChem-11282313333D

 40 41  0     1  0  0  0  0  0999 V2000
   -1.2369    5.9791   -3.2174 C   0  0  0  0  0  0  0  0  0  0  0  0
   -0.1612    6.5654   -2.4217 N   0  0  1  0  0  0  0  0  0  0  0  0
   -0.6796    7.2188   -1.2134 C   0  0  0  0  0  0  0  0  0  0  0  0
    0.2969    8.2143   -0.5633 C   0  0  0  0  0  0  0  0  0  0  0  0
    0.4981    9.5016   -1.3339 C   0  0  0  0  0  0  0  0  0  0  0  0
    0.2005   10.7369   -0.7459 C   0  0  0  0  0  0  0  0  0  0  0  0
    0.3792   11.9376   -1.4436 C   0  0  0  0  0  0  0  0  0  0  0  0
    0.8610   11.9210   -2.7497 C   0  0  0  0  0  0  0  0  0  0  0  0
    1.0377   13.0944   -3.4362 O   0  0  0  0  0  0  0  0  0  0  0  0
    1.1601   10.6851   -3.3480 C   0  0  0  0  0  0  0  0  0  0  0  0
    1.6304   10.7596   -4.6497 O   0  0  0  0  0  0  0  0  0  0  0  0
    0.9848    9.4927   -2.6536 C   0  0  0  0  0  0  0  0  0  0  0  0
    0.9588    5.6389   -2.1930 C   0  0  0  0  0  0  0  0  0  0  0  0
    0.6425    4.4431   -1.3104 C   0  0  0  0  0  0  0  0  0  0  0  0
    0.8230    4.5129    0.0806 C   0  0  0  0  0  0  0  0  0  0  0  0
    0.4737    3.4478    0.9089 C   0  0  0  0  0  0  0  0  0  0  0  0
   -0.0668    2.2995    0.3282 C   0  0  0  0  0  0  0  0  0  0  0  0
   -0.2535    2.1907   -1.0510 C   0  0  0  0  0  0  0  0  0  0  0  0
    0.1055    3.2675   -1.8597 C   0  0  0  0  0  0  0  0  0  0  0  0
   -0.4426    1.1699    1.1926 N   0  3  0  0  0  0  0  0  0  0  0  0
   -0.9349    0.1717    0.6545 O   0  5  0  0  0  0  0  0  0  0  0  0
   -0.2458    1.2844    2.4076 O   0  0  0  0  0  0  0  0  0  0  0  0
   -1.9270    6.7713   -3.5235 H   0  0  0  0  0  0  0  0  0  0  0  0
   -1.8185    5.2072   -2.6849 H   0  0  0  0  0  0  0  0  0  0  0  0
   -0.8200    5.5265   -4.1235 H   0  0  0  0  0  0  0  0  0  0  0  0
   -1.0016    6.4802   -0.4591 H   0  0  0  0  0  0  0  0  0  0  0  0
   -1.5773    7.7708   -1.5094 H   0  0  0  0  0  0  0  0  0  0  0  0
   -0.1001    8.4573    0.4280 H   0  0  0  0  0  0  0  0  0  0  0  0
    1.2634    7.7285   -0.3823 H   0  0  0  0  0  0  0  0  0  0  0  0
   -0.1774   10.7701    0.2731 H   0  0  0  0  0  0  0  0  0  0  0  0
    0.1478   12.8952   -0.9862 H   0  0  0  0  0  0  0  0  0  0  0  0
    1.3736   12.8713   -4.3217 H   0  0  0  0  0  0  0  0  0  0  0  0
    1.7934    9.8643   -4.9847 H   0  0  0  0  0  0  0  0  0  0  0  0
    1.1921    8.5427   -3.1400 H   0  0  0  0  0  0  0  0  0  0  0  0
    1.7891    6.2024   -1.7580 H   0  0  0  0  0  0  0  0  0  0  0  0
    1.2946    5.2899   -3.1754 H   0  0  0  0  0  0  0  0  0  0  0  0
    1.2503    5.4094    0.5221 H   0  0  0  0  0  0  0  0  0  0  0  0
    0.6131    3.4911    1.9829 H   0  0  0  0  0  0  0  0  0  0  0  0
   -0.6664    1.2786   -1.4658 H   0  0  0  0  0  0  0  0  0  0  0  0
   -0.0260    3.1897   -2.9357 H   0  0  0  0  0  0  0  0  0  0  0  0
  1  2  1  0  0  0  0
  1 23  1  0  0  0  0
  1 24  1  0  0  0  0
  1 25  1  0  0  0  0
  2  3  1  0  0  0  0
  2 13  1  0  0  0  0
  3  4  1  0  0  0  0
  3 26  1  0  0  0  0
  3 27  1  0  0  0  0
  4  5  1  0  0  0  0
  4 28  1  0  0  0  0
  4 29  1  0  0  0  0
  5  6  1  0  0  0  0
  5 12  2  0  0  0  0
  6  7  2  0  0  0  0
  6 30  1  0  0  0  0
  7  8  1  0  0  0  0
  7 31  1  0  0  0  0
  8  9  1  0  0  0  0
  8 10  2  0  0  0  0
  9 32  1  0  0  0  0
 10 11  1  0  0  0  0
 10 12  1  0  0  0  0
 11 33  1  0  0  0  0
 12 34  1  0  0  0  0
 13 14  1  0  0  0  0
 13 35  1  0  0  0  0
 13 36  1  0  0  0  0
 14 15  1  0  0  0  0
 14 19  2  0  0  0  0
 15 16  2  0  0  0  0
 15 37  1  0  0  0  0
 16 17  1  0  0  0  0
 16 38  1  0  0  0  0
 17 18  2  0  0  0  0
 17 20  1  0  0  0  0
 18 19  1  0  0  0  0
 18 39  1  0  0  0  0
 19 40  1  0  0  0  0
 20 21  1  0  0  0  0
 20 22  2  0  0  0  0
M  CHG  2  20   1  21  -1
M  END
> <SMILES QCArchive>
[H]c1c(c(c(c(c1C([H])([H])N(C([H])([H])[H])C([H])([H])C([H])([H])c2c(c(c(c(c2[H])O[H])O[H])[H])[H])[H])[H])[N+](=O)[O-])[H]

> <Energy QCArchive>
-646981.2820422128

> <Record QCArchive>
36954877

> <Compound Name>
BRI-00538-0

> <final_energy>
-646981.2820422128

$$$$
