BRI-01068-00
  -OEChem-11282313333D

 42 43  0     1  0  0  0  0  0999 V2000
    0.9640    1.2677   -7.1998 C   0  0  0  0  0  0  0  0  0  0  0  0
    1.8335    0.1079   -6.6741 C   0  0  1  0  0  0  0  0  0  0  0  0
    3.0479   -0.1169   -7.5735 C   0  0  0  0  0  0  0  0  0  0  0  0
    3.8085   -1.3715   -7.2115 C   0  0  0  0  0  0  0  0  0  0  0  0
    5.0232   -1.4210   -7.8202 O   0  0  0  0  0  0  0  0  0  0  0  0
    3.4062   -2.2672   -6.4934 O   0  0  0  0  0  0  0  0  0  0  0  0
    2.2827    0.4318   -5.2422 C   0  0  0  0  0  0  0  0  0  0  0  0
    3.3983    0.9158   -5.0529 O   0  0  0  0  0  0  0  0  0  0  0  0
    1.3352    0.2258   -4.1196 C   0  0  0  0  0  0  0  0  0  0  0  0
    1.6779    0.7172   -2.8508 C   0  0  0  0  0  0  0  0  0  0  0  0
    0.8257    0.5652   -1.7615 C   0  0  0  0  0  0  0  0  0  0  0  0
   -0.4084   -0.0971   -1.9003 C   0  0  0  0  0  0  0  0  0  0  0  0
   -1.3069   -0.2708   -0.8670 N   0  0  0  0  0  0  0  0  0  0  0  0
   -0.9343   -0.0919    0.5260 C   0  0  0  0  0  0  0  0  0  0  0  0
   -0.8449    1.3622    0.9675 C   0  0  0  0  0  0  0  0  0  0  0  0
   -0.0673    1.7003    2.0829 C   0  0  0  0  0  0  0  0  0  0  0  0
    0.0013    3.0235    2.5287 C   0  0  0  0  0  0  0  0  0  0  0  0
   -0.7044    4.0267    1.8556 C   0  0  0  0  0  0  0  0  0  0  0  0
   -1.4756    3.6952    0.7369 C   0  0  0  0  0  0  0  0  0  0  0  0
   -1.5462    2.3702    0.2963 C   0  0  0  0  0  0  0  0  0  0  0  0
   -0.7505   -0.5954   -3.1822 C   0  0  0  0  0  0  0  0  0  0  0  0
   -1.9694   -1.2501   -3.2560 O   0  0  0  0  0  0  0  0  0  0  0  0
    0.0960   -0.4360   -4.2649 C   0  0  0  0  0  0  0  0  0  0  0  0
    0.0944    1.4372   -6.5586 H   0  0  0  0  0  0  0  0  0  0  0  0
    1.5418    2.1971   -7.2336 H   0  0  0  0  0  0  0  0  0  0  0  0
    0.6053    1.0514   -8.2119 H   0  0  0  0  0  0  0  0  0  0  0  0
    1.2407   -0.8100   -6.6692 H   0  0  0  0  0  0  0  0  0  0  0  0
    2.7345   -0.2189   -8.6198 H   0  0  0  0  0  0  0  0  0  0  0  0
    3.7346    0.7311   -7.5260 H   0  0  0  0  0  0  0  0  0  0  0  0
    5.4334   -2.2615   -7.5389 H   0  0  0  0  0  0  0  0  0  0  0  0
    2.6287    1.2274   -2.7370 H   0  0  0  0  0  0  0  0  0  0  0  0
    1.1079    0.9748   -0.7980 H   0  0  0  0  0  0  0  0  0  0  0  0
   -2.0486   -0.9291   -1.0633 H   0  0  0  0  0  0  0  0  0  0  0  0
    0.0191   -0.5949    0.7445 H   0  0  0  0  0  0  0  0  0  0  0  0
   -1.6985   -0.5967    1.1265 H   0  0  0  0  0  0  0  0  0  0  0  0
    0.4942    0.9263    2.6035 H   0  0  0  0  0  0  0  0  0  0  0  0
    0.6103    3.2720    3.3942 H   0  0  0  0  0  0  0  0  0  0  0  0
   -0.6468    5.0576    2.1954 H   0  0  0  0  0  0  0  0  0  0  0  0
   -2.0190    4.4705    0.2024 H   0  0  0  0  0  0  0  0  0  0  0  0
   -2.1318    2.1121   -0.5813 H   0  0  0  0  0  0  0  0  0  0  0  0
   -2.0724   -1.6331   -4.1410 H   0  0  0  0  0  0  0  0  0  0  0  0
   -0.2053   -0.8465   -5.2253 H   0  0  0  0  0  0  0  0  0  0  0  0
  1  2  1  0  0  0  0
  1 24  1  0  0  0  0
  1 25  1  0  0  0  0
  1 26  1  0  0  0  0
  2  3  1  0  0  0  0
  2  7  1  0  0  0  0
  2 27  1  0  0  0  0
  3  4  1  0  0  0  0
  3 28  1  0  0  0  0
  3 29  1  0  0  0  0
  4  5  1  0  0  0  0
  4  6  2  0  0  0  0
  5 30  1  0  0  0  0
  7  8  2  0  0  0  0
  7  9  1  0  0  0  0
  9 10  1  0  0  0  0
  9 23  2  0  0  0  0
 10 11  2  0  0  0  0
 10 31  1  0  0  0  0
 11 12  1  0  0  0  0
 11 32  1  0  0  0  0
 12 13  1  0  0  0  0
 12 21  2  0  0  0  0
 13 14  1  0  0  0  0
 13 33  1  0  0  0  0
 14 15  1  0  0  0  0
 14 34  1  0  0  0  0
 14 35  1  0  0  0  0
 15 16  1  0  0  0  0
 15 20  2  0  0  0  0
 16 17  2  0  0  0  0
 16 36  1  0  0  0  0
 17 18  1  0  0  0  0
 17 37  1  0  0  0  0
 18 19  2  0  0  0  0
 18 38  1  0  0  0  0
 19 20  1  0  0  0  0
 19 39  1  0  0  0  0
 20 40  1  0  0  0  0
 21 22  1  0  0  0  0
 21 23  1  0  0  0  0
 22 41  1  0  0  0  0
 23 42  1  0  0  0  0
M  END
> <SMILES QCArchive>
[H]c1c(c(c(c(c1[H])[H])C([H])([H])N([H])c2c(c(c(c(c2O[H])[H])C(=O)[C@@]([H])(C([H])([H])[H])C([H])([H])C(=O)O[H])[H])[H])[H])[H]

> <Energy QCArchive>
-660914.4050245471

> <Record QCArchive>
36954838

> <Compound Name>
BRI-01068-0

> <final_energy>
-660914.4050245471

$$$$
