BRI-00226-03
  -OEChem-11282313333D

 60 63  0     1  0  0  0  0  0999 V2000
   -2.0882    1.8666    6.5616 O   0  0  0  0  0  0  0  0  0  0  0  0
   -0.7238    1.9112    6.6766 C   0  0  0  0  0  0  0  0  0  0  0  0
   -0.1637    2.9241    7.0524 O   0  0  0  0  0  0  0  0  0  0  0  0
   -0.0620    0.7565    6.3374 N   0  0  0  0  0  0  0  0  0  0  0  0
    1.4057    0.7124    6.4100 C   0  0  0  0  0  0  0  0  0  0  0  0
    1.7266   -0.6815    5.8637 C   0  0  0  0  0  0  0  0  0  0  0  0
    0.5427   -1.5254    6.3584 C   0  0  0  0  0  0  0  0  0  0  0  0
   -0.6759   -0.5742    6.2296 C   0  0  2  0  0  0  0  0  0  0  0  0
   -1.3607   -0.7404    7.0702 H   0  0  0  0  0  0  0  0  0  0  0  0
   -1.4535   -0.7767    4.9346 C   0  0  0  0  0  0  0  0  0  0  0  0
   -1.1604   -0.0456    3.7766 C   0  0  0  0  0  0  0  0  0  0  0  0
   -1.8802   -0.2713    2.5983 C   0  0  0  0  0  0  0  0  0  0  0  0
   -2.8957   -1.2251    2.5641 C   0  0  0  0  0  0  0  0  0  0  0  0
   -3.1925   -1.9762    3.7110 C   0  0  0  0  0  0  0  0  0  0  0  0
   -2.4750   -1.7359    4.8906 C   0  0  0  0  0  0  0  0  0  0  0  0
   -4.3180   -2.9721    3.6116 C   0  0  0  0  0  0  0  0  0  0  0  0
   -5.2227   -2.8272    2.7907 O   0  0  0  0  0  0  0  0  0  0  0  0
   -4.2330   -4.0295    4.4866 N   0  0  0  0  0  0  0  0  0  0  0  0
   -5.1283   -5.1116    4.6605 C   0  0  0  0  0  0  0  0  0  0  0  0
   -6.3766   -5.1974    4.0227 C   0  0  0  0  0  0  0  0  0  0  0  0
   -7.2006   -6.2961    4.2726 C   0  0  0  0  0  0  0  0  0  0  0  0
   -6.8241   -7.3269    5.1455 C   0  0  0  0  0  0  0  0  0  0  0  0
   -7.7042   -8.5343    5.3633 C   0  0  0  0  0  0  0  0  0  0  0  0
   -7.6131   -9.5582    4.2134 C   0  0  0  0  0  0  0  0  0  0  0  0
   -8.1611   -9.0285    2.9615 N   0  0  0  0  0  0  0  0  0  0  0  0
   -7.5547   -9.5934    1.7604 C   0  0  0  0  0  0  0  0  0  0  0  0
   -7.9066  -11.0887    1.5754 C   0  0  0  0  0  0  0  0  0  0  0  0
   -9.1797  -11.3982    2.1565 O   0  0  0  0  0  0  0  0  0  0  0  0
  -10.0921  -10.3131    2.0189 C   0  0  0  0  0  0  0  0  0  0  0  0
   -9.6286   -9.1068    2.8708 C   0  0  0  0  0  0  0  0  0  0  0  0
   -5.5745   -7.2241    5.7725 C   0  0  0  0  0  0  0  0  0  0  0  0
   -4.7358   -6.1351    5.5379 C   0  0  0  0  0  0  0  0  0  0  0  0
   -2.3688    1.1222    5.9998 H   0  0  0  0  0  0  0  0  0  0  0  0
    1.7430    0.8338    7.4468 H   0  0  0  0  0  0  0  0  0  0  0  0
    1.8367    1.5264    5.8233 H   0  0  0  0  0  0  0  0  0  0  0  0
    2.6903   -1.0568    6.2165 H   0  0  0  0  0  0  0  0  0  0  0  0
    1.7492   -0.6639    4.7693 H   0  0  0  0  0  0  0  0  0  0  0  0
    0.6837   -1.7854    7.4127 H   0  0  0  0  0  0  0  0  0  0  0  0
    0.3978   -2.4493    5.7946 H   0  0  0  0  0  0  0  0  0  0  0  0
   -0.3869    0.7162    3.8076 H   0  0  0  0  0  0  0  0  0  0  0  0
   -1.6538    0.3102    1.7086 H   0  0  0  0  0  0  0  0  0  0  0  0
   -3.4814   -1.3954    1.6664 H   0  0  0  0  0  0  0  0  0  0  0  0
   -2.7328   -2.2608    5.8091 H   0  0  0  0  0  0  0  0  0  0  0  0
   -3.3738   -4.1041    5.0145 H   0  0  0  0  0  0  0  0  0  0  0  0
   -6.6845   -4.4174    3.3404 H   0  0  0  0  0  0  0  0  0  0  0  0
   -8.1582   -6.3586    3.7653 H   0  0  0  0  0  0  0  0  0  0  0  0
   -7.4192   -9.0403    6.2929 H   0  0  0  0  0  0  0  0  0  0  0  0
   -8.7480   -8.2235    5.4865 H   0  0  0  0  0  0  0  0  0  0  0  0
   -8.1040  -10.4956    4.5197 H   0  0  0  0  0  0  0  0  0  0  0  0
   -6.5556   -9.7899    4.0469 H   0  0  0  0  0  0  0  0  0  0  0  0
   -7.9083   -9.0106    0.9018 H   0  0  0  0  0  0  0  0  0  0  0  0
   -6.4693   -9.4609    1.8006 H   0  0  0  0  0  0  0  0  0  0  0  0
   -7.9062  -11.3561    0.5064 H   0  0  0  0  0  0  0  0  0  0  0  0
   -7.1870  -11.7329    2.0887 H   0  0  0  0  0  0  0  0  0  0  0  0
  -10.1872  -10.0308    0.9590 H   0  0  0  0  0  0  0  0  0  0  0  0
  -11.0664  -10.6801    2.3513 H   0  0  0  0  0  0  0  0  0  0  0  0
  -10.0307   -8.1796    2.4366 H   0  0  0  0  0  0  0  0  0  0  0  0
  -10.0366   -9.1902    3.8816 H   0  0  0  0  0  0  0  0  0  0  0  0
   -5.2494   -8.0041    6.4579 H   0  0  0  0  0  0  0  0  0  0  0  0
   -3.7726   -6.0772    6.0430 H   0  0  0  0  0  0  0  0  0  0  0  0
  1  2  1  0  0  0  0
  1 33  1  0  0  0  0
  2  3  2  0  0  0  0
  2  4  1  0  0  0  0
  4  5  1  0  0  0  0
  4  8  1  0  0  0  0
  5  6  1  0  0  0  0
  5 34  1  0  0  0  0
  5 35  1  0  0  0  0
  6  7  1  0  0  0  0
  6 36  1  0  0  0  0
  6 37  1  0  0  0  0
  7  8  1  0  0  0  0
  7 38  1  0  0  0  0
  7 39  1  0  0  0  0
  8  9  1  0  0  0  0
  8 10  1  0  0  0  0
 10 11  1  0  0  0  0
 10 15  2  0  0  0  0
 11 12  2  0  0  0  0
 11 40  1  0  0  0  0
 12 13  1  0  0  0  0
 12 41  1  0  0  0  0
 13 14  2  0  0  0  0
 13 42  1  0  0  0  0
 14 15  1  0  0  0  0
 14 16  1  0  0  0  0
 15 43  1  0  0  0  0
 16 17  2  0  0  0  0
 16 18  1  0  0  0  0
 18 19  1  0  0  0  0
 18 44  1  0  0  0  0
 19 20  1  0  0  0  0
 19 32  2  0  0  0  0
 20 21  2  0  0  0  0
 20 45  1  0  0  0  0
 21 22  1  0  0  0  0
 21 46  1  0  0  0  0
 22 23  1  0  0  0  0
 22 31  2  0  0  0  0
 23 24  1  0  0  0  0
 23 47  1  0  0  0  0
 23 48  1  0  0  0  0
 24 25  1  0  0  0  0
 24 49  1  0  0  0  0
 24 50  1  0  0  0  0
 25 26  1  0  0  0  0
 25 30  1  0  0  0  0
 26 27  1  0  0  0  0
 26 51  1  0  0  0  0
 26 52  1  0  0  0  0
 27 28  1  0  0  0  0
 27 53  1  0  0  0  0
 27 54  1  0  0  0  0
 28 29  1  0  0  0  0
 29 30  1  0  0  0  0
 29 55  1  0  0  0  0
 29 56  1  0  0  0  0
 30 57  1  0  0  0  0
 30 58  1  0  0  0  0
 31 32  1  0  0  0  0
 31 59  1  0  0  0  0
 32 60  1  0  0  0  0
M  END
> <SMILES QCArchive>
[H]c1c(c(c(c(c1[H])[C@]2(C(C(C(N2C(=O)O[H])([H])[H])([H])[H])([H])[H])[H])[H])C(=O)N([H])c3c(c(c(c(c3[H])[H])C([H])([H])C([H])([H])N4C(C(OC(C4([H])[H])([H])[H])([H])[H])([H])[H])[H])[H])[H]

> <Energy QCArchive>
-876918.8027258512

> <Record QCArchive>
36954849

> <Compound Name>
BRI-00226-3

> <final_energy>
-876918.8027258512

$$$$
