BRI-01068-04
  -OEChem-11282313333D

 42 43  0     1  0  0  0  0  0999 V2000
    3.0790    1.4281   -7.6846 C   0  0  0  0  0  0  0  0  0  0  0  0
    2.4270    0.0782   -7.3288 C   0  0  1  0  0  0  0  0  0  0  0  0
    3.3282   -0.7513   -6.4051 C   0  0  0  0  0  0  0  0  0  0  0  0
    2.7092   -2.0603   -5.9718 C   0  0  0  0  0  0  0  0  0  0  0  0
    3.4587   -2.6765   -5.0163 O   0  0  0  0  0  0  0  0  0  0  0  0
    1.6840   -2.5445   -6.4062 O   0  0  0  0  0  0  0  0  0  0  0  0
    0.9818    0.2918   -6.8486 C   0  0  0  0  0  0  0  0  0  0  0  0
    0.0882    0.3012   -7.6869 O   0  0  0  0  0  0  0  0  0  0  0  0
    0.6542    0.4968   -5.4047 C   0  0  0  0  0  0  0  0  0  0  0  0
    1.5264    1.0938   -4.4848 C   0  0  0  0  0  0  0  0  0  0  0  0
    1.1303    1.3117   -3.1619 C   0  0  0  0  0  0  0  0  0  0  0  0
   -0.1376    0.9102   -2.7249 C   0  0  0  0  0  0  0  0  0  0  0  0
   -0.6152    1.0554   -1.4071 N   0  0  0  0  0  0  0  0  0  0  0  0
    0.2506    1.6729   -0.3987 C   0  0  0  0  0  0  0  0  0  0  0  0
   -0.4562    1.7254    0.9369 C   0  0  0  0  0  0  0  0  0  0  0  0
   -0.8246    0.5375    1.5878 C   0  0  0  0  0  0  0  0  0  0  0  0
   -1.4867    0.5776    2.8162 C   0  0  0  0  0  0  0  0  0  0  0  0
   -1.7913    1.8090    3.4106 C   0  0  0  0  0  0  0  0  0  0  0  0
   -1.4300    2.9961    2.7685 C   0  0  0  0  0  0  0  0  0  0  0  0
   -0.7666    2.9518    1.5363 C   0  0  0  0  0  0  0  0  0  0  0  0
   -0.9952    0.2605   -3.6465 C   0  0  0  0  0  0  0  0  0  0  0  0
   -2.2286   -0.1833   -3.2245 O   0  0  0  0  0  0  0  0  0  0  0  0
   -0.6186    0.0851   -4.9673 C   0  0  0  0  0  0  0  0  0  0  0  0
    2.4469    1.9797   -8.3856 H   0  0  0  0  0  0  0  0  0  0  0  0
    3.2357    2.0571   -6.8028 H   0  0  0  0  0  0  0  0  0  0  0  0
    4.0537    1.2675   -8.1582 H   0  0  0  0  0  0  0  0  0  0  0  0
    2.2943   -0.4809   -8.2589 H   0  0  0  0  0  0  0  0  0  0  0  0
    4.2572   -0.9982   -6.9348 H   0  0  0  0  0  0  0  0  0  0  0  0
    3.6389   -0.2117   -5.5082 H   0  0  0  0  0  0  0  0  0  0  0  0
    2.9966   -3.5110   -4.8064 H   0  0  0  0  0  0  0  0  0  0  0  0
    2.5038    1.4460   -4.7930 H   0  0  0  0  0  0  0  0  0  0  0  0
    1.8077    1.8147   -2.4801 H   0  0  0  0  0  0  0  0  0  0  0  0
   -1.5460    1.4685   -1.3869 H   0  0  0  0  0  0  0  0  0  0  0  0
    1.1576    1.0627   -0.3228 H   0  0  0  0  0  0  0  0  0  0  0  0
    0.5654    2.6861   -0.6905 H   0  0  0  0  0  0  0  0  0  0  0  0
   -0.5909   -0.4178    1.1239 H   0  0  0  0  0  0  0  0  0  0  0  0
   -1.7640   -0.3488    3.3128 H   0  0  0  0  0  0  0  0  0  0  0  0
   -2.3061    1.8405    4.3673 H   0  0  0  0  0  0  0  0  0  0  0  0
   -1.6645    3.9552    3.2228 H   0  0  0  0  0  0  0  0  0  0  0  0
   -0.4888    3.8787    1.0389 H   0  0  0  0  0  0  0  0  0  0  0  0
   -2.1533   -0.3954   -2.2759 H   0  0  0  0  0  0  0  0  0  0  0  0
   -1.2960   -0.4004   -5.6618 H   0  0  0  0  0  0  0  0  0  0  0  0
  1  2  1  0  0  0  0
  1 24  1  0  0  0  0
  1 25  1  0  0  0  0
  1 26  1  0  0  0  0
  2  3  1  0  0  0  0
  2  7  1  0  0  0  0
  2 27  1  0  0  0  0
  3  4  1  0  0  0  0
  3 28  1  0  0  0  0
  3 29  1  0  0  0  0
  4  5  1  0  0  0  0
  4  6  2  0  0  0  0
  5 30  1  0  0  0  0
  7  8  2  0  0  0  0
  7  9  1  0  0  0  0
  9 10  1  0  0  0  0
  9 23  2  0  0  0  0
 10 11  2  0  0  0  0
 10 31  1  0  0  0  0
 11 12  1  0  0  0  0
 11 32  1  0  0  0  0
 12 13  1  0  0  0  0
 12 21  2  0  0  0  0
 13 14  1  0  0  0  0
 13 33  1  0  0  0  0
 14 15  1  0  0  0  0
 14 34  1  0  0  0  0
 14 35  1  0  0  0  0
 15 16  1  0  0  0  0
 15 20  2  0  0  0  0
 16 17  2  0  0  0  0
 16 36  1  0  0  0  0
 17 18  1  0  0  0  0
 17 37  1  0  0  0  0
 18 19  2  0  0  0  0
 18 38  1  0  0  0  0
 19 20  1  0  0  0  0
 19 39  1  0  0  0  0
 20 40  1  0  0  0  0
 21 22  1  0  0  0  0
 21 23  1  0  0  0  0
 22 41  1  0  0  0  0
 23 42  1  0  0  0  0
M  END
> <SMILES QCArchive>
[H]c1c(c(c(c(c1[H])[H])C([H])([H])N([H])c2c(c(c(c(c2O[H])[H])C(=O)[C@@]([H])(C([H])([H])[H])C([H])([H])C(=O)O[H])[H])[H])[H])[H]

> <Energy QCArchive>
-660907.7470968986

> <Record QCArchive>
36954842

> <Compound Name>
BRI-01068-4

> <final_energy>
-660907.7470968986

$$$$
