BRI-00226-09
  -OEChem-11282313333D

 60 63  0     1  0  0  0  0  0999 V2000
    0.2158    1.0329    3.5436 O   0  0  0  0  0  0  0  0  0  0  0  0
    1.0878    0.1114    4.0619 C   0  0  0  0  0  0  0  0  0  0  0  0
    2.0395   -0.3260    3.4267 O   0  0  0  0  0  0  0  0  0  0  0  0
    0.7636   -0.2301    5.3346 N   0  0  0  0  0  0  0  0  0  0  0  0
    1.6805   -1.0388    6.1490 C   0  0  0  0  0  0  0  0  0  0  0  0
    1.4201   -0.5190    7.5674 C   0  0  0  0  0  0  0  0  0  0  0  0
   -0.0774   -0.1825    7.5373 C   0  0  0  0  0  0  0  0  0  0  0  0
   -0.3111    0.4009    6.1218 C   0  0  2  0  0  0  0  0  0  0  0  0
   -0.1588    1.4865    6.1356 H   0  0  0  0  0  0  0  0  0  0  0  0
   -1.7043    0.1168    5.5973 C   0  0  0  0  0  0  0  0  0  0  0  0
   -2.6823    1.1167    5.6152 C   0  0  0  0  0  0  0  0  0  0  0  0
   -3.9812    0.8465    5.1757 C   0  0  0  0  0  0  0  0  0  0  0  0
   -4.3174   -0.4307    4.7242 C   0  0  0  0  0  0  0  0  0  0  0  0
   -3.3457   -1.4453    4.7083 C   0  0  0  0  0  0  0  0  0  0  0  0
   -2.0442   -1.1557    5.1319 C   0  0  0  0  0  0  0  0  0  0  0  0
   -3.6109   -2.8448    4.2250 C   0  0  0  0  0  0  0  0  0  0  0  0
   -2.7027   -3.5631    3.8091 O   0  0  0  0  0  0  0  0  0  0  0  0
   -4.9263   -3.2463    4.3079 N   0  0  0  0  0  0  0  0  0  0  0  0
   -5.5015   -4.4800    3.9313 C   0  0  0  0  0  0  0  0  0  0  0  0
   -4.7935   -5.5018    3.2774 C   0  0  0  0  0  0  0  0  0  0  0  0
   -5.4571   -6.6807    2.9315 C   0  0  0  0  0  0  0  0  0  0  0  0
   -6.8149   -6.8860    3.2116 C   0  0  0  0  0  0  0  0  0  0  0  0
   -7.4901   -8.1964    2.8912 C   0  0  0  0  0  0  0  0  0  0  0  0
   -7.3594   -9.1913    4.0793 C   0  0  0  0  0  0  0  0  0  0  0  0
   -7.9438  -10.5162    3.9552 N   0  0  0  0  0  0  0  0  0  0  0  0
   -7.3178  -11.4567    3.0286 C   0  0  0  0  0  0  0  0  0  0  0  0
   -7.9736  -11.4845    1.6422 C   0  0  0  0  0  0  0  0  0  0  0  0
   -9.3822  -11.7011    1.7515 O   0  0  0  0  0  0  0  0  0  0  0  0
  -10.0003  -10.6738    2.5291 C   0  0  0  0  0  0  0  0  0  0  0  0
   -9.4007  -10.6235    3.9402 C   0  0  0  0  0  0  0  0  0  0  0  0
   -7.5046   -5.8558    3.8680 C   0  0  0  0  0  0  0  0  0  0  0  0
   -6.8635   -4.6706    4.2214 C   0  0  0  0  0  0  0  0  0  0  0  0
    0.5163    1.1728    2.6281 H   0  0  0  0  0  0  0  0  0  0  0  0
    2.7056   -0.9005    5.8021 H   0  0  0  0  0  0  0  0  0  0  0  0
    1.4333   -2.1042    6.0593 H   0  0  0  0  0  0  0  0  0  0  0  0
    2.0125    0.3850    7.7463 H   0  0  0  0  0  0  0  0  0  0  0  0
    1.6757   -1.2522    8.3368 H   0  0  0  0  0  0  0  0  0  0  0  0
   -0.6708   -1.0948    7.6537 H   0  0  0  0  0  0  0  0  0  0  0  0
   -0.3897    0.5195    8.3145 H   0  0  0  0  0  0  0  0  0  0  0  0
   -2.4226    2.1177    5.9528 H   0  0  0  0  0  0  0  0  0  0  0  0
   -4.7271    1.6368    5.1672 H   0  0  0  0  0  0  0  0  0  0  0  0
   -5.3196   -0.6069    4.3412 H   0  0  0  0  0  0  0  0  0  0  0  0
   -1.2974   -1.9420    5.0736 H   0  0  0  0  0  0  0  0  0  0  0  0
   -5.5560   -2.6127    4.7814 H   0  0  0  0  0  0  0  0  0  0  0  0
   -3.7450   -5.3665    3.0516 H   0  0  0  0  0  0  0  0  0  0  0  0
   -4.8958   -7.4618    2.4221 H   0  0  0  0  0  0  0  0  0  0  0  0
   -8.5494   -8.0284    2.6713 H   0  0  0  0  0  0  0  0  0  0  0  0
   -7.0420   -8.6374    1.9953 H   0  0  0  0  0  0  0  0  0  0  0  0
   -7.7957   -8.7166    4.9669 H   0  0  0  0  0  0  0  0  0  0  0  0
   -6.2921   -9.3172    4.2981 H   0  0  0  0  0  0  0  0  0  0  0  0
   -6.2518  -11.2203    2.9388 H   0  0  0  0  0  0  0  0  0  0  0  0
   -7.3966  -12.4667    3.4558 H   0  0  0  0  0  0  0  0  0  0  0  0
   -7.5834  -12.3149    1.0458 H   0  0  0  0  0  0  0  0  0  0  0  0
   -7.7871  -10.5469    1.0970 H   0  0  0  0  0  0  0  0  0  0  0  0
  -11.0654  -10.9218    2.5696 H   0  0  0  0  0  0  0  0  0  0  0  0
   -9.8876   -9.7063    2.0165 H   0  0  0  0  0  0  0  0  0  0  0  0
   -9.8305   -9.7889    4.5051 H   0  0  0  0  0  0  0  0  0  0  0  0
   -9.6843  -11.5518    4.4566 H   0  0  0  0  0  0  0  0  0  0  0  0
   -8.5605   -5.9776    4.1010 H   0  0  0  0  0  0  0  0  0  0  0  0
   -7.4244   -3.8837    4.7234 H   0  0  0  0  0  0  0  0  0  0  0  0
  1  2  1  0  0  0  0
  1 33  1  0  0  0  0
  2  3  2  0  0  0  0
  2  4  1  0  0  0  0
  4  5  1  0  0  0  0
  4  8  1  0  0  0  0
  5  6  1  0  0  0  0
  5 34  1  0  0  0  0
  5 35  1  0  0  0  0
  6  7  1  0  0  0  0
  6 36  1  0  0  0  0
  6 37  1  0  0  0  0
  7  8  1  0  0  0  0
  7 38  1  0  0  0  0
  7 39  1  0  0  0  0
  8  9  1  0  0  0  0
  8 10  1  0  0  0  0
 10 11  1  0  0  0  0
 10 15  2  0  0  0  0
 11 12  2  0  0  0  0
 11 40  1  0  0  0  0
 12 13  1  0  0  0  0
 12 41  1  0  0  0  0
 13 14  2  0  0  0  0
 13 42  1  0  0  0  0
 14 15  1  0  0  0  0
 14 16  1  0  0  0  0
 15 43  1  0  0  0  0
 16 17  2  0  0  0  0
 16 18  1  0  0  0  0
 18 19  1  0  0  0  0
 18 44  1  0  0  0  0
 19 20  1  0  0  0  0
 19 32  2  0  0  0  0
 20 21  2  0  0  0  0
 20 45  1  0  0  0  0
 21 22  1  0  0  0  0
 21 46  1  0  0  0  0
 22 23  1  0  0  0  0
 22 31  2  0  0  0  0
 23 24  1  0  0  0  0
 23 47  1  0  0  0  0
 23 48  1  0  0  0  0
 24 25  1  0  0  0  0
 24 49  1  0  0  0  0
 24 50  1  0  0  0  0
 25 26  1  0  0  0  0
 25 30  1  0  0  0  0
 26 27  1  0  0  0  0
 26 51  1  0  0  0  0
 26 52  1  0  0  0  0
 27 28  1  0  0  0  0
 27 53  1  0  0  0  0
 27 54  1  0  0  0  0
 28 29  1  0  0  0  0
 29 30  1  0  0  0  0
 29 55  1  0  0  0  0
 29 56  1  0  0  0  0
 30 57  1  0  0  0  0
 30 58  1  0  0  0  0
 31 32  1  0  0  0  0
 31 59  1  0  0  0  0
 32 60  1  0  0  0  0
M  END
> <SMILES QCArchive>
[H]c1c(c(c(c(c1[H])[C@]2(C(C(C(N2C(=O)O[H])([H])[H])([H])[H])([H])[H])[H])[H])C(=O)N([H])c3c(c(c(c(c3[H])[H])C([H])([H])C([H])([H])N4C(C(OC(C4([H])[H])([H])[H])([H])[H])([H])[H])[H])[H])[H]

> <Energy QCArchive>
-876928.135084782

> <Record QCArchive>
36954855

> <Compound Name>
BRI-00226-9

> <final_energy>
-876928.135084782

$$$$
