BRI-00528-00
  -OEChem-11282313333D

 47 48  0     0  0  0  0  0  0999 V2000
   -2.1346    6.7469    3.2292 C   0  0  0  0  0  0  0  0  0  0  0  0
   -1.9420    5.2518    3.4431 C   0  0  0  0  0  0  0  0  0  0  0  0
   -3.1652    4.5654    4.0426 C   0  0  0  0  0  0  0  0  0  0  0  0
   -1.6621    4.6942    2.1259 O   0  0  0  0  0  0  0  0  0  0  0  0
   -0.9574    3.5254    2.1000 C   0  0  0  0  0  0  0  0  0  0  0  0
   -0.5413    2.9391    3.0911 O   0  0  0  0  0  0  0  0  0  0  0  0
   -0.7617    3.1289    0.8090 N   0  0  0  0  0  0  0  0  0  0  0  0
   -0.2637    1.7934    0.4870 C   0  0  0  0  0  0  0  0  0  0  0  0
    0.3254    1.8244   -0.9310 C   0  0  0  0  0  0  0  0  0  0  0  0
    0.6671    0.4189   -1.4399 C   0  0  0  0  0  0  0  0  0  0  0  0
   -0.4973   -0.4696   -1.3161 N   0  0  0  0  0  0  0  0  0  0  0  0
   -0.9239   -0.6338    0.0821 C   0  0  0  0  0  0  0  0  0  0  0  0
   -1.3638    0.7246    0.6443 C   0  0  0  0  0  0  0  0  0  0  0  0
   -1.5107   -0.4153   -2.2379 C   0  0  0  0  0  0  0  0  0  0  0  0
   -2.6560   -0.8023   -2.0409 O   0  0  0  0  0  0  0  0  0  0  0  0
   -1.0982    0.1246   -3.4298 O   0  0  0  0  0  0  0  0  0  0  0  0
   -2.1529    0.8015   -4.1695 C   0  0  0  0  0  0  0  0  0  0  0  0
   -2.4168    2.1442   -3.5287 C   0  0  0  0  0  0  0  0  0  0  0  0
   -1.6351    3.2565   -3.8745 C   0  0  0  0  0  0  0  0  0  0  0  0
   -1.7728    4.4668   -3.1894 C   0  0  0  0  0  0  0  0  0  0  0  0
   -2.6962    4.5768   -2.1428 C   0  0  0  0  0  0  0  0  0  0  0  0
   -3.4910    3.4763   -1.8010 C   0  0  0  0  0  0  0  0  0  0  0  0
   -3.3559    2.2684   -2.4929 C   0  0  0  0  0  0  0  0  0  0  0  0
   -2.3252    7.2406    4.1874 H   0  0  0  0  0  0  0  0  0  0  0  0
   -2.9868    6.9381    2.5687 H   0  0  0  0  0  0  0  0  0  0  0  0
   -1.2416    7.1924    2.7811 H   0  0  0  0  0  0  0  0  0  0  0  0
   -1.0691    5.0640    4.0731 H   0  0  0  0  0  0  0  0  0  0  0  0
   -2.9821    3.4956    4.1669 H   0  0  0  0  0  0  0  0  0  0  0  0
   -4.0388    4.7068    3.3970 H   0  0  0  0  0  0  0  0  0  0  0  0
   -3.3910    4.9913    5.0261 H   0  0  0  0  0  0  0  0  0  0  0  0
   -1.3107    3.6052    0.1012 H   0  0  0  0  0  0  0  0  0  0  0  0
    0.5347    1.5747    1.2028 H   0  0  0  0  0  0  0  0  0  0  0  0
    1.2170    2.4609   -0.9421 H   0  0  0  0  0  0  0  0  0  0  0  0
   -0.3985    2.2714   -1.6201 H   0  0  0  0  0  0  0  0  0  0  0  0
    0.9964    0.4484   -2.4767 H   0  0  0  0  0  0  0  0  0  0  0  0
    1.4749   -0.0222   -0.8450 H   0  0  0  0  0  0  0  0  0  0  0  0
   -0.0753   -1.0384    0.6445 H   0  0  0  0  0  0  0  0  0  0  0  0
   -1.7367   -1.3576    0.1210 H   0  0  0  0  0  0  0  0  0  0  0  0
   -1.6268    0.6358    1.7032 H   0  0  0  0  0  0  0  0  0  0  0  0
   -2.2607    1.0468    0.1040 H   0  0  0  0  0  0  0  0  0  0  0  0
   -3.0417    0.1697   -4.1901 H   0  0  0  0  0  0  0  0  0  0  0  0
   -1.7508    0.9071   -5.1781 H   0  0  0  0  0  0  0  0  0  0  0  0
   -0.9004    3.1673   -4.6718 H   0  0  0  0  0  0  0  0  0  0  0  0
   -1.1563    5.3189   -3.4632 H   0  0  0  0  0  0  0  0  0  0  0  0
   -2.8000    5.5141   -1.6021 H   0  0  0  0  0  0  0  0  0  0  0  0
   -4.2138    3.5583   -0.9933 H   0  0  0  0  0  0  0  0  0  0  0  0
   -3.9557    1.4075   -2.2138 H   0  0  0  0  0  0  0  0  0  0  0  0
  1  2  1  0  0  0  0
  1 24  1  0  0  0  0
  1 25  1  0  0  0  0
  1 26  1  0  0  0  0
  2  3  1  0  0  0  0
  2  4  1  0  0  0  0
  2 27  1  0  0  0  0
  3 28  1  0  0  0  0
  3 29  1  0  0  0  0
  3 30  1  0  0  0  0
  4  5  1  0  0  0  0
  5  6  2  0  0  0  0
  5  7  1  0  0  0  0
  7  8  1  0  0  0  0
  7 31  1  0  0  0  0
  8  9  1  0  0  0  0
  8 13  1  0  0  0  0
  8 32  1  0  0  0  0
  9 10  1  0  0  0  0
  9 33  1  0  0  0  0
  9 34  1  0  0  0  0
 10 11  1  0  0  0  0
 10 35  1  0  0  0  0
 10 36  1  0  0  0  0
 11 12  1  0  0  0  0
 11 14  1  0  0  0  0
 12 13  1  0  0  0  0
 12 37  1  0  0  0  0
 12 38  1  0  0  0  0
 13 39  1  0  0  0  0
 13 40  1  0  0  0  0
 14 15  2  0  0  0  0
 14 16  1  0  0  0  0
 16 17  1  0  0  0  0
 17 18  1  0  0  0  0
 17 41  1  0  0  0  0
 17 42  1  0  0  0  0
 18 19  1  0  0  0  0
 18 23  2  0  0  0  0
 19 20  2  0  0  0  0
 19 43  1  0  0  0  0
 20 21  1  0  0  0  0
 20 44  1  0  0  0  0
 21 22  2  0  0  0  0
 21 45  1  0  0  0  0
 22 23  1  0  0  0  0
 22 46  1  0  0  0  0
 23 47  1  0  0  0  0
M  END
> <SMILES QCArchive>
[H]c1c(c(c(c(c1[H])[H])C([H])([H])OC(=O)N2C(C(C(C(C2([H])[H])([H])[H])([H])N([H])C(=O)OC([H])(C([H])([H])[H])C([H])([H])[H])([H])[H])([H])[H])[H])[H]

> <Energy QCArchive>
-673282.8070263562

> <Record QCArchive>
36954910

> <Compound Name>
BRI-00528-0

> <final_energy>
-673282.8070263562

$$$$
