BRI-00386-01
  -OEChem-11282313333D

 40 42  0     1  0  0  0  0  0999 V2000
   -0.3088   -0.1562   -3.2907 C   0  0  0  0  0  0  0  0  0  0  0  0
    1.0628    0.2618   -3.4682 O   0  0  0  0  0  0  0  0  0  0  0  0
    1.9983   -0.5933   -2.9550 C   0  0  0  0  0  0  0  0  0  0  0  0
    2.4139   -1.7412   -3.6190 C   0  0  0  0  0  0  0  0  0  0  0  0
    3.3057   -2.6112   -3.0809 N   0  0  0  0  0  0  0  0  0  0  0  0
    3.7312   -2.3334   -1.8539 C   0  0  0  0  0  0  0  0  0  0  0  0
    3.4330   -1.2533   -1.1342 N   0  0  0  0  0  0  0  0  0  0  0  0
    2.6092   -0.3301   -1.6770 C   0  0  0  0  0  0  0  0  0  0  0  0
    2.3810    0.7798   -0.9207 N   0  0  3  0  0  0  0  0  0  0  0  0
    2.7711    0.7443    0.5008 C   0  0  0  0  0  0  0  0  0  0  0  0
    2.1827    1.9429    1.2751 C   0  0  0  0  0  0  0  0  0  0  0  0
    0.8005    2.3143    0.7987 C   0  0  0  0  0  0  0  0  0  0  0  0
   -0.2862    2.5676    1.6372 C   0  0  0  0  0  0  0  0  0  0  0  0
   -1.5259    2.9318    1.0979 C   0  0  0  0  0  0  0  0  0  0  0  0
   -1.6527    3.0335   -0.2839 C   0  0  0  0  0  0  0  0  0  0  0  0
   -2.8880    3.4496   -0.8282 O   0  0  0  0  0  0  0  0  0  0  0  0
   -3.7501    2.4714   -1.1974 C   0  0  0  0  0  0  0  0  0  0  0  0
   -3.2391    1.6583   -2.1568 F   0  0  0  0  0  0  0  0  0  0  0  0
   -4.8507    3.0537   -1.6840 F   0  0  0  0  0  0  0  0  0  0  0  0
   -4.1085    1.6723   -0.1650 F   0  0  0  0  0  0  0  0  0  0  0  0
   -0.5832    2.7875   -1.1443 C   0  0  0  0  0  0  0  0  0  0  0  0
    0.6430    2.4224   -0.5937 C   0  0  0  0  0  0  0  0  0  0  0  0
    1.8552    2.0616   -1.4152 C   0  0  0  0  0  0  0  0  0  0  0  0
    1.9215   -2.1480   -4.9970 C   0  0  0  0  0  0  0  0  0  0  0  0
    2.5587   -3.2350   -5.4704 O   0  0  0  0  0  0  0  0  0  0  0  0
    1.0520   -1.5785   -5.6217 O   0  0  0  0  0  0  0  0  0  0  0  0
   -0.9199    0.6253   -3.7428 H   0  0  0  0  0  0  0  0  0  0  0  0
   -0.5437   -0.2385   -2.2238 H   0  0  0  0  0  0  0  0  0  0  0  0
   -0.4885   -1.0999   -3.8085 H   0  0  0  0  0  0  0  0  0  0  0  0
    4.4009   -3.0548   -1.3894 H   0  0  0  0  0  0  0  0  0  0  0  0
    2.4034   -0.1940    0.9235 H   0  0  0  0  0  0  0  0  0  0  0  0
    3.8619    0.7298    0.5985 H   0  0  0  0  0  0  0  0  0  0  0  0
    2.1887    1.7038    2.3419 H   0  0  0  0  0  0  0  0  0  0  0  0
    2.8410    2.8120    1.1483 H   0  0  0  0  0  0  0  0  0  0  0  0
   -0.1745    2.4841    2.7154 H   0  0  0  0  0  0  0  0  0  0  0  0
   -2.3830    3.1323    1.7327 H   0  0  0  0  0  0  0  0  0  0  0  0
   -0.7193    2.8741   -2.2178 H   0  0  0  0  0  0  0  0  0  0  0  0
    1.6265    1.9892   -2.4716 H   0  0  0  0  0  0  0  0  0  0  0  0
    2.6403    2.8222   -1.2925 H   0  0  0  0  0  0  0  0  0  0  0  0
    3.1787   -3.5221   -4.7570 H   0  0  0  0  0  0  0  0  0  0  0  0
  1  2  1  0  0  0  0
  1 27  1  0  0  0  0
  1 28  1  0  0  0  0
  1 29  1  0  0  0  0
  2  3  1  0  0  0  0
  3  4  1  0  0  0  0
  3  8  2  0  0  0  0
  4  5  2  0  0  0  0
  4 24  1  0  0  0  0
  5  6  1  0  0  0  0
  6  7  2  0  0  0  0
  6 30  1  0  0  0  0
  7  8  1  0  0  0  0
  8  9  1  0  0  0  0
  9 10  1  0  0  0  0
  9 23  1  0  0  0  0
 10 11  1  0  0  0  0
 10 31  1  0  0  0  0
 10 32  1  0  0  0  0
 11 12  1  0  0  0  0
 11 33  1  0  0  0  0
 11 34  1  0  0  0  0
 12 13  1  0  0  0  0
 12 22  2  0  0  0  0
 13 14  2  0  0  0  0
 13 35  1  0  0  0  0
 14 15  1  0  0  0  0
 14 36  1  0  0  0  0
 15 16  1  0  0  0  0
 15 21  2  0  0  0  0
 16 17  1  0  0  0  0
 17 18  1  0  0  0  0
 17 19  1  0  0  0  0
 17 20  1  0  0  0  0
 21 22  1  0  0  0  0
 21 37  1  0  0  0  0
 22 23  1  0  0  0  0
 23 38  1  0  0  0  0
 23 39  1  0  0  0  0
 24 25  1  0  0  0  0
 24 26  2  0  0  0  0
 25 40  1  0  0  0  0
M  END
> <SMILES QCArchive>
[H]c1c(c(c(c2c1C(C(N(C2([H])[H])c3c(c(nc(n3)[H])C(=O)O[H])OC([H])([H])[H])([H])[H])([H])[H])[H])OC(F)(F)F)[H]

> <Energy QCArchive>
-867909.583157532

> <Record QCArchive>
36954895

> <Compound Name>
BRI-00386-1

> <final_energy>
-867909.583157532

$$$$
