BRI-01081-03
  -OEChem-11282313333D

 39 42  0     0  0  0  0  0  0999 V2000
   -1.2122    6.0204    0.7336 O   0  0  0  0  0  0  0  0  0  0  0  0
    0.0691    5.6352    0.1238 S   0  0  0  0  0  0  0  0  0  0  0  0
    1.3356    6.0391    0.7520 O   0  0  0  0  0  0  0  0  0  0  0  0
    0.0391    6.2403   -1.4893 N   0  0  0  0  0  0  0  0  0  0  0  0
   -1.0535    6.9014   -2.0594 C   0  0  0  0  0  0  0  0  0  0  0  0
   -0.8067    7.0869   -3.4048 C   0  0  0  0  0  0  0  0  0  0  0  0
    0.5159    6.4795   -3.6630 C   0  0  0  0  0  0  0  0  0  0  0  0
    0.9986    5.9879   -2.4529 C   0  0  0  0  0  0  0  0  0  0  0  0
    2.2457    5.3435   -2.3733 C   0  0  0  0  0  0  0  0  0  0  0  0
    3.0056    5.1847   -3.5528 C   0  0  0  0  0  0  0  0  0  0  0  0
    2.5060    5.6572   -4.7892 C   0  0  0  0  0  0  0  0  0  0  0  0
    1.2510    6.3033   -4.8520 C   0  0  0  0  0  0  0  0  0  0  0  0
   -1.7187    7.7771   -4.3546 C   0  0  0  0  0  0  0  0  0  0  0  0
   -1.2010    8.5266   -5.4337 C   0  0  0  0  0  0  0  0  0  0  0  0
   -2.0710    9.1854   -6.3248 C   0  0  0  0  0  0  0  0  0  0  0  0
   -3.4639    9.1048   -6.1391 C   0  0  0  0  0  0  0  0  0  0  0  0
   -3.9871    8.3714   -5.0575 C   0  0  0  0  0  0  0  0  0  0  0  0
   -3.1179    7.7133   -4.1650 C   0  0  0  0  0  0  0  0  0  0  0  0
    0.0680    3.8097    0.0077 C   0  0  0  0  0  0  0  0  0  0  0  0
    0.8814    3.0469    0.8726 C   0  0  0  0  0  0  0  0  0  0  0  0
    0.8831    1.6422    0.7738 C   0  0  0  0  0  0  0  0  0  0  0  0
    0.0759    0.9992   -0.1852 C   0  0  0  0  0  0  0  0  0  0  0  0
   -0.7354    1.7628   -1.0473 C   0  0  0  0  0  0  0  0  0  0  0  0
   -0.7422    3.1676   -0.9525 C   0  0  0  0  0  0  0  0  0  0  0  0
   -1.9429    7.2353   -1.5241 H   0  0  0  0  0  0  0  0  0  0  0  0
    2.6209    4.9750   -1.4214 H   0  0  0  0  0  0  0  0  0  0  0  0
    3.9744    4.6906   -3.5105 H   0  0  0  0  0  0  0  0  0  0  0  0
    3.0893    5.5192   -5.6974 H   0  0  0  0  0  0  0  0  0  0  0  0
    0.8619    6.6428   -5.8080 H   0  0  0  0  0  0  0  0  0  0  0  0
   -0.1279    8.6286   -5.5703 H   0  0  0  0  0  0  0  0  0  0  0  0
   -1.6652    9.7645   -7.1519 H   0  0  0  0  0  0  0  0  0  0  0  0
   -4.1355    9.6150   -6.8269 H   0  0  0  0  0  0  0  0  0  0  0  0
   -5.0638    8.3127   -4.9110 H   0  0  0  0  0  0  0  0  0  0  0  0
   -3.5399    7.1448   -3.3398 H   0  0  0  0  0  0  0  0  0  0  0  0
    1.5090    3.5386    1.6175 H   0  0  0  0  0  0  0  0  0  0  0  0
    1.5094    1.0544    1.4415 H   0  0  0  0  0  0  0  0  0  0  0  0
    0.0786   -0.0867   -0.2595 H   0  0  0  0  0  0  0  0  0  0  0  0
   -1.3590    1.2680   -1.7889 H   0  0  0  0  0  0  0  0  0  0  0  0
   -1.3709    3.7518   -1.6253 H   0  0  0  0  0  0  0  0  0  0  0  0
  1  2  2  0  0  0  0
  2  3  2  0  0  0  0
  2  4  1  0  0  0  0
  2 19  1  0  0  0  0
  4  5  1  0  0  0  0
  4  8  1  0  0  0  0
  5  6  2  0  0  0  0
  5 25  1  0  0  0  0
  6  7  1  0  0  0  0
  6 13  1  0  0  0  0
  7  8  1  0  0  0  0
  7 12  2  0  0  0  0
  8  9  2  0  0  0  0
  9 10  1  0  0  0  0
  9 26  1  0  0  0  0
 10 11  2  0  0  0  0
 10 27  1  0  0  0  0
 11 12  1  0  0  0  0
 11 28  1  0  0  0  0
 12 29  1  0  0  0  0
 13 14  1  0  0  0  0
 13 18  2  0  0  0  0
 14 15  2  0  0  0  0
 14 30  1  0  0  0  0
 15 16  1  0  0  0  0
 15 31  1  0  0  0  0
 16 17  2  0  0  0  0
 16 32  1  0  0  0  0
 17 18  1  0  0  0  0
 17 33  1  0  0  0  0
 18 34  1  0  0  0  0
 19 20  1  0  0  0  0
 19 24  2  0  0  0  0
 20 21  2  0  0  0  0
 20 35  1  0  0  0  0
 21 22  1  0  0  0  0
 21 36  1  0  0  0  0
 22 23  2  0  0  0  0
 22 37  1  0  0  0  0
 23 24  1  0  0  0  0
 23 38  1  0  0  0  0
 24 39  1  0  0  0  0
M  END
> <Energy FFXML>
10.717408977535646

> <SMILES QCArchive>
[H]c1c(c(c(c(c1[H])[H])C2=C(N(c3c2c(c(c(c3[H])[H])[H])[H])S(=O)(=O)c4c(c(c(c(c4[H])[H])[H])[H])[H])[H])[H])[H]

> <Energy QCArchive>
-862602.9643431153

> <Record QCArchive>
36954867

> <final_energy>
10.717408977535646

$$$$
