BRI-00538-06
  -OEChem-11282313333D

 40 41  0     1  0  0  0  0  0999 V2000
   -3.6709    5.6780   -1.6816 C   0  0  0  0  0  0  0  0  0  0  0  0
   -2.6045    6.3883   -0.9252 N   0  0  2  0  0  0  0  0  0  0  0  0
   -1.7259    7.2654   -1.7697 C   0  0  0  0  0  0  0  0  0  0  0  0
   -1.0037    8.3541   -0.9413 C   0  0  0  0  0  0  0  0  0  0  0  0
    0.1288    8.9637   -1.7505 C   0  0  0  0  0  0  0  0  0  0  0  0
    0.0032   10.2618   -2.2915 C   0  0  0  0  0  0  0  0  0  0  0  0
    1.0553   10.8129   -3.0517 C   0  0  0  0  0  0  0  0  0  0  0  0
    2.2246   10.0665   -3.2735 C   0  0  0  0  0  0  0  0  0  0  0  0
    3.2373   10.5931   -4.0063 O   0  0  0  0  0  0  0  0  0  0  0  0
    2.3523    8.7672   -2.7420 C   0  0  0  0  0  0  0  0  0  0  0  0
    3.4885    8.0476   -2.9703 O   0  0  0  0  0  0  0  0  0  0  0  0
    1.3054    8.2158   -1.9817 C   0  0  0  0  0  0  0  0  0  0  0  0
   -1.9341    5.5690    0.1519 C   0  0  0  0  0  0  0  0  0  0  0  0
   -0.5397    5.0596   -0.2164 C   0  0  0  0  0  0  0  0  0  0  0  0
   -0.3570    4.2020   -1.3198 C   0  0  0  0  0  0  0  0  0  0  0  0
    0.9359    3.7839   -1.6900 C   0  0  0  0  0  0  0  0  0  0  0  0
    2.0718    4.2087   -0.9520 C   0  0  0  0  0  0  0  0  0  0  0  0
    1.8727    5.0319    0.1867 C   0  0  0  0  0  0  0  0  0  0  0  0
    0.5786    5.4523    0.5483 C   0  0  0  0  0  0  0  0  0  0  0  0
    3.3793    3.8163   -1.3420 N   0  3  0  0  0  0  0  0  0  0  0  0
    4.3588    4.3124   -0.7600 O   0  5  0  0  0  0  0  0  0  0  0  0
    3.5259    3.1003   -2.3467 O   0  0  0  0  0  0  0  0  0  0  0  0
   -4.2586    6.3892   -2.2698 H   0  0  0  0  0  0  0  0  0  0  0  0
   -4.3538    5.1661   -0.9971 H   0  0  0  0  0  0  0  0  0  0  0  0
   -3.2380    4.9410   -2.3633 H   0  0  0  0  0  0  0  0  0  0  0  0
   -2.3293    7.7609   -2.5368 H   0  0  0  0  0  0  0  0  0  0  0  0
   -0.9970    6.6565   -2.3108 H   0  0  0  0  0  0  0  0  0  0  0  0
   -1.7228    9.1229   -0.6455 H   0  0  0  0  0  0  0  0  0  0  0  0
   -0.5953    7.9330   -0.0221 H   0  0  0  0  0  0  0  0  0  0  0  0
   -0.9008   10.8448   -2.1271 H   0  0  0  0  0  0  0  0  0  0  0  0
    0.9757   11.8122   -3.4733 H   0  0  0  0  0  0  0  0  0  0  0  0
    3.9723    9.9599   -4.0720 H   0  0  0  0  0  0  0  0  0  0  0  0
    3.4461    7.1671   -2.5651 H   0  0  0  0  0  0  0  0  0  0  0  0
    1.3952    7.2120   -1.5781 H   0  0  0  0  0  0  0  0  0  0  0  0
   -1.8712    6.1743    1.0612 H   0  0  0  0  0  0  0  0  0  0  0  0
   -2.5623    4.7126    0.4162 H   0  0  0  0  0  0  0  0  0  0  0  0
   -1.2158    3.8808   -1.9040 H   0  0  0  0  0  0  0  0  0  0  0  0
    1.0425    3.1366   -2.5599 H   0  0  0  0  0  0  0  0  0  0  0  0
    2.7146    5.3603    0.7957 H   0  0  0  0  0  0  0  0  0  0  0  0
    0.4504    6.0976    1.4152 H   0  0  0  0  0  0  0  0  0  0  0  0
  1  2  1  0  0  0  0
  1 23  1  0  0  0  0
  1 24  1  0  0  0  0
  1 25  1  0  0  0  0
  2  3  1  0  0  0  0
  2 13  1  0  0  0  0
  3  4  1  0  0  0  0
  3 26  1  0  0  0  0
  3 27  1  0  0  0  0
  4  5  1  0  0  0  0
  4 28  1  0  0  0  0
  4 29  1  0  0  0  0
  5  6  1  0  0  0  0
  5 12  2  0  0  0  0
  6  7  2  0  0  0  0
  6 30  1  0  0  0  0
  7  8  1  0  0  0  0
  7 31  1  0  0  0  0
  8  9  1  0  0  0  0
  8 10  2  0  0  0  0
  9 32  1  0  0  0  0
 10 11  1  0  0  0  0
 10 12  1  0  0  0  0
 11 33  1  0  0  0  0
 12 34  1  0  0  0  0
 13 14  1  0  0  0  0
 13 35  1  0  0  0  0
 13 36  1  0  0  0  0
 14 15  1  0  0  0  0
 14 19  2  0  0  0  0
 15 16  2  0  0  0  0
 15 37  1  0  0  0  0
 16 17  1  0  0  0  0
 16 38  1  0  0  0  0
 17 18  2  0  0  0  0
 17 20  1  0  0  0  0
 18 19  1  0  0  0  0
 18 39  1  0  0  0  0
 19 40  1  0  0  0  0
 20 21  1  0  0  0  0
 20 22  2  0  0  0  0
M  CHG  2  20   1  21  -1
M  END
> <Energy FFXML>
16.75555939200256

> <SMILES QCArchive>
[H]c1c(c(c(c(c1C([H])([H])N(C([H])([H])[H])C([H])([H])C([H])([H])c2c(c(c(c(c2[H])O[H])O[H])[H])[H])[H])[H])[N+](=O)[O-])[H]

> <Energy QCArchive>
-646981.4704075403

> <Record QCArchive>
36954883

> <final_energy>
16.75555939200256

$$$$
