BRI-00174-06
  -OEChem-11282313333D

 41 44  0     0  0  0  0  0  0999 V2000
    3.3668    2.0219   -2.4766 C   0  0  0  0  0  0  0  0  0  0  0  0
    2.6344    1.3778   -1.3578 N   0  0  0  0  0  0  0  0  0  0  0  0
    2.5000    2.0574   -0.1299 C   0  0  0  0  0  0  0  0  0  0  0  0
    3.6047    2.7791    0.3755 C   0  0  0  0  0  0  0  0  0  0  0  0
    3.5147    3.4695    1.5979 C   0  0  0  0  0  0  0  0  0  0  0  0
    2.3191    3.4488    2.3389 C   0  0  0  0  0  0  0  0  0  0  0  0
    1.2125    2.7265    1.8446 C   0  0  0  0  0  0  0  0  0  0  0  0
    1.2855    2.0298    0.6160 C   0  0  0  0  0  0  0  0  0  0  0  0
    0.1334    1.3405    0.1635 N   0  0  0  0  0  0  0  0  0  0  0  0
   -1.1127    2.0211    0.1927 C   0  0  0  0  0  0  0  0  0  0  0  0
   -2.2812    1.4103    0.7079 C   0  0  0  0  0  0  0  0  0  0  0  0
   -3.4970    2.1201    0.7591 C   0  0  0  0  0  0  0  0  0  0  0  0
   -3.5565    3.4506    0.3052 C   0  0  0  0  0  0  0  0  0  0  0  0
   -2.3998    4.0724   -0.2000 C   0  0  0  0  0  0  0  0  0  0  0  0
   -1.1845    3.3622   -0.2531 C   0  0  0  0  0  0  0  0  0  0  0  0
    0.2440    0.0066   -0.2874 C   0  0  0  0  0  0  0  0  0  0  0  0
   -0.7274   -0.6315   -0.6712 O   0  0  0  0  0  0  0  0  0  0  0  0
    1.5750   -0.6833   -0.3545 C   0  0  0  0  0  0  0  0  0  0  0  0
    2.3222    0.0169   -1.4452 C   0  0  0  0  0  0  0  0  0  0  0  0
    2.7215   -0.6426   -2.3943 O   0  0  0  0  0  0  0  0  0  0  0  0
    2.2462    4.2125    3.6582 C   0  0  0  0  0  0  0  0  0  0  0  0
    0.9263    4.9003    4.0710 C   0  0  0  0  0  0  0  0  0  0  0  0
    1.3977    3.6576    4.8234 C   0  0  0  0  0  0  0  0  0  0  0  0
    2.9296    1.7350   -3.4383 H   0  0  0  0  0  0  0  0  0  0  0  0
    3.2955    3.1115   -2.4089 H   0  0  0  0  0  0  0  0  0  0  0  0
    4.4214    1.7311   -2.4650 H   0  0  0  0  0  0  0  0  0  0  0  0
    4.5455    2.8025   -0.1693 H   0  0  0  0  0  0  0  0  0  0  0  0
    4.3776    4.0194    1.9680 H   0  0  0  0  0  0  0  0  0  0  0  0
    0.2822    2.7020    2.4064 H   0  0  0  0  0  0  0  0  0  0  0  0
   -2.2557    0.3850    1.0700 H   0  0  0  0  0  0  0  0  0  0  0  0
   -4.3906    1.6362    1.1486 H   0  0  0  0  0  0  0  0  0  0  0  0
   -4.4971    3.9967    0.3426 H   0  0  0  0  0  0  0  0  0  0  0  0
   -2.4446    5.1008   -0.5527 H   0  0  0  0  0  0  0  0  0  0  0  0
   -0.2977    3.8519   -0.6490 H   0  0  0  0  0  0  0  0  0  0  0  0
    1.4381   -1.7353   -0.6104 H   0  0  0  0  0  0  0  0  0  0  0  0
    2.1050   -0.6146    0.5943 H   0  0  0  0  0  0  0  0  0  0  0  0
    3.1838    4.7187    3.9081 H   0  0  0  0  0  0  0  0  0  0  0  0
    0.0546    4.8270    3.4143 H   0  0  0  0  0  0  0  0  0  0  0  0
    0.9801    5.8676    4.5787 H   0  0  0  0  0  0  0  0  0  0  0  0
    0.8538    2.7180    4.6921 H   0  0  0  0  0  0  0  0  0  0  0  0
    1.7728    3.7781    5.8438 H   0  0  0  0  0  0  0  0  0  0  0  0
  1  2  1  0  0  0  0
  1 24  1  0  0  0  0
  1 25  1  0  0  0  0
  1 26  1  0  0  0  0
  2  3  1  0  0  0  0
  2 19  1  0  0  0  0
  3  4  1  0  0  0  0
  3  8  2  0  0  0  0
  4  5  2  0  0  0  0
  4 27  1  0  0  0  0
  5  6  1  0  0  0  0
  5 28  1  0  0  0  0
  6  7  2  0  0  0  0
  6 21  1  0  0  0  0
  7  8  1  0  0  0  0
  7 29  1  0  0  0  0
  8  9  1  0  0  0  0
  9 10  1  0  0  0  0
  9 16  1  0  0  0  0
 10 11  1  0  0  0  0
 10 15  2  0  0  0  0
 11 12  2  0  0  0  0
 11 30  1  0  0  0  0
 12 13  1  0  0  0  0
 12 31  1  0  0  0  0
 13 14  2  0  0  0  0
 13 32  1  0  0  0  0
 14 15  1  0  0  0  0
 14 33  1  0  0  0  0
 15 34  1  0  0  0  0
 16 17  2  0  0  0  0
 16 18  1  0  0  0  0
 18 19  1  0  0  0  0
 18 35  1  0  0  0  0
 18 36  1  0  0  0  0
 19 20  2  0  0  0  0
 21 22  1  0  0  0  0
 21 23  1  0  0  0  0
 21 37  1  0  0  0  0
 22 23  1  0  0  0  0
 22 38  1  0  0  0  0
 22 39  1  0  0  0  0
 23 40  1  0  0  0  0
 23 41  1  0  0  0  0
M  END
> <Energy FFXML>
-25.42410275888885

> <SMILES QCArchive>
[H]c1c(c(c(c(c1[H])[H])N2c3c(c(c(c(c3N(C(=O)C(C2=O)([H])[H])C([H])([H])[H])[H])[H])C4(C(C4([H])[H])([H])[H])[H])[H])[H])[H]

> <Energy QCArchive>
-624371.3383427567

> <Record QCArchive>
36954874

> <final_energy>
-25.42410275888885

$$$$
