BRI-00505-03
  -OEChem-11282313333D

 34 36  0     0  0  0  0  0  0999 V2000
    3.8761    3.0714    1.2481 C   0  0  0  0  0  0  0  0  0  0  0  0
    2.7671    3.7481    0.5391 N   0  0  0  0  0  0  0  0  0  0  0  0
    2.6719    5.1162    0.3705 C   0  0  0  0  0  0  0  0  0  0  0  0
    1.5362    5.4408   -0.2066 N   0  0  0  0  0  0  0  0  0  0  0  0
    0.8735    4.2192   -0.4199 C   0  0  0  0  0  0  0  0  0  0  0  0
   -0.4728    4.1984   -1.1065 C   0  0  0  0  0  0  0  0  0  0  0  0
    1.6276    3.1590    0.0296 C   0  0  0  0  0  0  0  0  0  0  0  0
    1.2677    1.7184   -0.0121 C   0  0  0  0  0  0  0  0  0  0  0  0
    2.1454    0.6911   -0.0447 C   0  0  0  0  0  0  0  0  0  0  0  0
    1.3687   -0.4301   -0.0699 N   0  0  0  0  0  0  0  0  0  0  0  0
    0.0346   -0.0943   -0.0494 N   0  0  0  0  0  0  0  0  0  0  0  0
   -0.0370    1.2122   -0.0151 N   0  0  0  0  0  0  0  0  0  0  0  0
    1.8421   -1.7627   -0.1142 C   0  0  0  0  0  0  0  0  0  0  0  0
    3.2284   -2.0533   -0.1751 C   0  0  0  0  0  0  0  0  0  0  0  0
    3.6773   -3.3875   -0.2189 C   0  0  0  0  0  0  0  0  0  0  0  0
    2.7525   -4.4475   -0.2025 C   0  0  0  0  0  0  0  0  0  0  0  0
    1.3665   -4.1807   -0.1425 C   0  0  0  0  0  0  0  0  0  0  0  0
    0.9192   -2.8375   -0.0994 C   0  0  0  0  0  0  0  0  0  0  0  0
    0.3887   -5.3046   -0.1255 C   0  0  0  0  0  0  0  0  0  0  0  0
    0.8124   -6.5771   -0.1681 O   0  0  0  0  0  0  0  0  0  0  0  0
   -0.8112   -5.0921   -0.0706 O   0  0  0  0  0  0  0  0  0  0  0  0
    4.5389    2.5740    0.5353 H   0  0  0  0  0  0  0  0  0  0  0  0
    4.4643    3.7991    1.8148 H   0  0  0  0  0  0  0  0  0  0  0  0
    3.4828    2.3424    1.9626 H   0  0  0  0  0  0  0  0  0  0  0  0
    3.4311    5.8329    0.6771 H   0  0  0  0  0  0  0  0  0  0  0  0
   -1.2412    4.5798   -0.4298 H   0  0  0  0  0  0  0  0  0  0  0  0
   -0.4431    4.8364   -1.9932 H   0  0  0  0  0  0  0  0  0  0  0  0
   -0.7474    3.1932   -1.4273 H   0  0  0  0  0  0  0  0  0  0  0  0
    3.2235    0.7618   -0.0647 H   0  0  0  0  0  0  0  0  0  0  0  0
    3.9760   -1.2659   -0.1934 H   0  0  0  0  0  0  0  0  0  0  0  0
    4.7434   -3.6028   -0.2671 H   0  0  0  0  0  0  0  0  0  0  0  0
    3.1121   -5.4756   -0.2371 H   0  0  0  0  0  0  0  0  0  0  0  0
   -0.1515   -2.6358   -0.0537 H   0  0  0  0  0  0  0  0  0  0  0  0
    0.0423   -7.1620   -0.1490 H   0  0  0  0  0  0  0  0  0  0  0  0
  1  2  1  0  0  0  0
  1 22  1  0  0  0  0
  1 23  1  0  0  0  0
  1 24  1  0  0  0  0
  2  3  1  0  0  0  0
  2  7  1  0  0  0  0
  3  4  2  0  0  0  0
  3 25  1  0  0  0  0
  4  5  1  0  0  0  0
  5  6  1  0  0  0  0
  5  7  2  0  0  0  0
  6 26  1  0  0  0  0
  6 27  1  0  0  0  0
  6 28  1  0  0  0  0
  7  8  1  0  0  0  0
  8  9  2  0  0  0  0
  8 12  1  0  0  0  0
  9 10  1  0  0  0  0
  9 29  1  0  0  0  0
 10 11  1  0  0  0  0
 10 13  1  0  0  0  0
 11 12  2  0  0  0  0
 13 14  1  0  0  0  0
 13 18  2  0  0  0  0
 14 15  2  0  0  0  0
 14 30  1  0  0  0  0
 15 16  1  0  0  0  0
 15 31  1  0  0  0  0
 16 17  2  0  0  0  0
 16 32  1  0  0  0  0
 17 18  1  0  0  0  0
 17 19  1  0  0  0  0
 18 33  1  0  0  0  0
 19 20  1  0  0  0  0
 19 21  2  0  0  0  0
 20 34  1  0  0  0  0
M  END
> <Energy FFXML>
-10.742741212995346

> <SMILES QCArchive>
[H]c1c(c(c(c(c1[H])N2C(=C(N=N2)C3=C(N=C(N3C([H])([H])[H])[H])C([H])([H])[H])[H])[H])C(=O)O[H])[H]

> <Energy QCArchive>
-605975.4216507178

> <Record QCArchive>
36954933

> <final_energy>
-10.742741212995346

$$$$
