BRI-01064-04
  -OEChem-11282313333D

 57 58  0     1  0  0  0  0  0999 V2000
   -0.7820    4.1482    2.5546 C   0  0  0  0  0  0  0  0  0  0  0  0
   -0.6484    3.3084    1.2707 C   0  0  0  0  0  0  0  0  0  0  0  0
   -0.3427    1.8315    1.6187 C   0  0  0  0  0  0  0  0  0  0  0  0
   -0.0343    0.9647    0.3567 C   0  0  1  0  0  0  0  0  0  0  0  0
    0.8704    1.3785   -0.0904 H   0  0  0  0  0  0  0  0  0  0  0  0
    0.3185   -0.4741    0.7896 C   0  0  0  0  0  0  0  0  0  0  0  0
    0.9653   -1.2293   -0.3678 C   0  0  0  0  0  0  0  0  0  0  0  0
    2.0699   -0.8516   -0.7445 O   0  0  0  0  0  0  0  0  0  0  0  0
    0.3176   -2.3359   -0.8475 O   0  0  0  0  0  0  0  0  0  0  0  0
    0.9275   -2.9413   -2.0158 C   0  0  0  0  0  0  0  0  0  0  0  0
   -0.0544   -3.9586   -2.6110 C   0  0  0  0  0  0  0  0  0  0  0  0
   -1.1711    0.9031   -0.6526 N   0  0  1  0  0  0  0  0  0  0  0  0
   -2.5505    0.6606   -0.0748 C   0  0  0  0  0  0  0  0  0  0  0  0
   -3.3821   -0.3284   -0.8813 C   0  0  0  0  0  0  0  0  0  0  0  0
   -4.5236    0.1096   -1.5883 C   0  0  0  0  0  0  0  0  0  0  0  0
   -5.2927   -0.8083   -2.3303 C   0  0  0  0  0  0  0  0  0  0  0  0
   -4.9300   -2.1685   -2.3623 C   0  0  0  0  0  0  0  0  0  0  0  0
   -3.7985   -2.6114   -1.6512 C   0  0  0  0  0  0  0  0  0  0  0  0
   -3.0282   -1.6937   -0.9110 C   0  0  0  0  0  0  0  0  0  0  0  0
   -1.1323    1.8797   -1.8261 C   0  0  1  0  0  0  0  0  0  0  0  0
   -1.6767    2.7856   -1.5441 H   0  0  0  0  0  0  0  0  0  0  0  0
    0.2878    2.3057   -2.2791 C   0  0  0  0  0  0  0  0  0  0  0  0
   -1.8031    1.2793   -3.0620 C   0  0  0  0  0  0  0  0  0  0  0  0
   -1.4627   -0.0203   -3.4985 C   0  0  0  0  0  0  0  0  0  0  0  0
   -2.0649   -0.5642   -4.6488 C   0  0  0  0  0  0  0  0  0  0  0  0
   -2.9993    0.1945   -5.3793 C   0  0  0  0  0  0  0  0  0  0  0  0
   -3.3294    1.4982   -4.9606 C   0  0  0  0  0  0  0  0  0  0  0  0
   -2.7304    2.0421   -3.8071 C   0  0  0  0  0  0  0  0  0  0  0  0
   -1.5905    3.7610    3.1813 H   0  0  0  0  0  0  0  0  0  0  0  0
    0.1503    4.1241    3.1261 H   0  0  0  0  0  0  0  0  0  0  0  0
   -1.0065    5.1881    2.3014 H   0  0  0  0  0  0  0  0  0  0  0  0
    0.1551    3.7187    0.6529 H   0  0  0  0  0  0  0  0  0  0  0  0
   -1.5788    3.3750    0.7021 H   0  0  0  0  0  0  0  0  0  0  0  0
   -1.1700    1.4078    2.1918 H   0  0  0  0  0  0  0  0  0  0  0  0
    0.5293    1.8036    2.2789 H   0  0  0  0  0  0  0  0  0  0  0  0
    1.0151   -0.4603    1.6301 H   0  0  0  0  0  0  0  0  0  0  0  0
   -0.5748   -1.0056    1.1190 H   0  0  0  0  0  0  0  0  0  0  0  0
    1.1567   -2.1819   -2.7715 H   0  0  0  0  0  0  0  0  0  0  0  0
    1.8608   -3.4419   -1.7388 H   0  0  0  0  0  0  0  0  0  0  0  0
   -0.9803   -3.4581   -2.9082 H   0  0  0  0  0  0  0  0  0  0  0  0
    0.3846   -4.4343   -3.4919 H   0  0  0  0  0  0  0  0  0  0  0  0
   -0.2900   -4.7316   -1.8746 H   0  0  0  0  0  0  0  0  0  0  0  0
   -2.4788    0.2649    0.9399 H   0  0  0  0  0  0  0  0  0  0  0  0
   -3.0868    1.6102    0.0095 H   0  0  0  0  0  0  0  0  0  0  0  0
   -4.8032    1.1601   -1.5791 H   0  0  0  0  0  0  0  0  0  0  0  0
   -6.1626   -0.4638   -2.8850 H   0  0  0  0  0  0  0  0  0  0  0  0
   -5.5222   -2.8760   -2.9387 H   0  0  0  0  0  0  0  0  0  0  0  0
   -3.5145   -3.6611   -1.6748 H   0  0  0  0  0  0  0  0  0  0  0  0
   -2.1539   -2.0390   -0.3679 H   0  0  0  0  0  0  0  0  0  0  0  0
    0.9251    1.4292   -2.4282 H   0  0  0  0  0  0  0  0  0  0  0  0
    0.2352    2.8546   -3.2237 H   0  0  0  0  0  0  0  0  0  0  0  0
    0.7476    2.9718   -1.5461 H   0  0  0  0  0  0  0  0  0  0  0  0
   -0.7502   -0.6056   -2.9227 H   0  0  0  0  0  0  0  0  0  0  0  0
   -1.8114   -1.5732   -4.9653 H   0  0  0  0  0  0  0  0  0  0  0  0
   -3.4662   -0.2280   -6.2663 H   0  0  0  0  0  0  0  0  0  0  0  0
   -4.0483    2.0847   -5.5285 H   0  0  0  0  0  0  0  0  0  0  0  0
   -2.9892    3.0506   -3.4937 H   0  0  0  0  0  0  0  0  0  0  0  0
  1  2  1  0  0  0  0
  1 29  1  0  0  0  0
  1 30  1  0  0  0  0
  1 31  1  0  0  0  0
  2  3  1  0  0  0  0
  2 32  1  0  0  0  0
  2 33  1  0  0  0  0
  3  4  1  0  0  0  0
  3 34  1  0  0  0  0
  3 35  1  0  0  0  0
  4  5  1  0  0  0  0
  4  6  1  0  0  0  0
  4 12  1  0  0  0  0
  6  7  1  0  0  0  0
  6 36  1  0  0  0  0
  6 37  1  0  0  0  0
  7  8  2  0  0  0  0
  7  9  1  0  0  0  0
  9 10  1  0  0  0  0
 10 11  1  0  0  0  0
 10 38  1  0  0  0  0
 10 39  1  0  0  0  0
 11 40  1  0  0  0  0
 11 41  1  0  0  0  0
 11 42  1  0  0  0  0
 12 13  1  0  0  0  0
 12 20  1  0  0  0  0
 13 14  1  0  0  0  0
 13 43  1  0  0  0  0
 13 44  1  0  0  0  0
 14 15  1  0  0  0  0
 14 19  2  0  0  0  0
 15 16  2  0  0  0  0
 15 45  1  0  0  0  0
 16 17  1  0  0  0  0
 16 46  1  0  0  0  0
 17 18  2  0  0  0  0
 17 47  1  0  0  0  0
 18 19  1  0  0  0  0
 18 48  1  0  0  0  0
 19 49  1  0  0  0  0
 20 21  1  0  0  0  0
 20 22  1  0  0  0  0
 20 23  1  0  0  0  0
 22 50  1  0  0  0  0
 22 51  1  0  0  0  0
 22 52  1  0  0  0  0
 23 24  1  0  0  0  0
 23 28  2  0  0  0  0
 24 25  2  0  0  0  0
 24 53  1  0  0  0  0
 25 26  1  0  0  0  0
 25 54  1  0  0  0  0
 26 27  2  0  0  0  0
 26 55  1  0  0  0  0
 27 28  1  0  0  0  0
 27 56  1  0  0  0  0
 28 57  1  0  0  0  0
M  END
> <Energy FFXML>
-13.919264248557383

> <SMILES QCArchive>
[H]c1c(c(c(c(c1[H])[H])[C@]([H])(C([H])([H])[H])N([C@]([H])(C([H])([H])C(=O)OC([H])([H])C([H])([H])[H])C([H])([H])C([H])([H])C([H])([H])[H])C([H])([H])c2c(c(c(c(c2[H])[H])[H])[H])[H])[H])[H]

> <Energy QCArchive>
-690607.4333532524

> <Record QCArchive>
36954891

> <final_energy>
-13.919264248557383

$$$$
