BRI-01068-05
  -OEChem-11282313333D

 42 43  0     1  0  0  0  0  0999 V2000
    1.1027   -0.2800   -7.1154 C   0  0  0  0  0  0  0  0  0  0  0  0
    1.8836   -1.0530   -6.0112 C   0  0  1  0  0  0  0  0  0  0  0  0
    3.0311   -1.9308   -6.6455 C   0  0  0  0  0  0  0  0  0  0  0  0
    4.1973   -1.1588   -7.3000 C   0  0  0  0  0  0  0  0  0  0  0  0
    5.4272   -1.6926   -7.2601 O   0  0  0  0  0  0  0  0  0  0  0  0
    3.9949   -0.1754   -7.9932 O   0  0  0  0  0  0  0  0  0  0  0  0
    2.3963   -0.0795   -4.8918 C   0  0  0  0  0  0  0  0  0  0  0  0
    3.5908   -0.0530   -4.6175 O   0  0  0  0  0  0  0  0  0  0  0  0
    1.4490    0.7367   -4.0635 C   0  0  0  0  0  0  0  0  0  0  0  0
    1.9439    1.8411   -3.3264 C   0  0  0  0  0  0  0  0  0  0  0  0
    1.0783    2.6218   -2.5364 C   0  0  0  0  0  0  0  0  0  0  0  0
   -0.2879    2.3000   -2.4633 C   0  0  0  0  0  0  0  0  0  0  0  0
   -1.1753    3.0371   -1.6847 N   0  0  0  0  0  0  0  0  0  0  0  0
   -0.8301    3.4414   -0.3031 C   0  0  0  0  0  0  0  0  0  0  0  0
   -0.9582    2.2465    0.6256 C   0  0  0  0  0  0  0  0  0  0  0  0
    0.1090    1.3310    0.7556 C   0  0  0  0  0  0  0  0  0  0  0  0
   -0.0185    0.2123    1.6015 C   0  0  0  0  0  0  0  0  0  0  0  0
   -1.2135    0.0015    2.3165 C   0  0  0  0  0  0  0  0  0  0  0  0
   -2.2840    0.9070    2.1815 C   0  0  0  0  0  0  0  0  0  0  0  0
   -2.1593    2.0260    1.3346 C   0  0  0  0  0  0  0  0  0  0  0  0
   -0.7967    1.2058   -3.1965 C   0  0  0  0  0  0  0  0  0  0  0  0
   -2.1273    0.8926   -3.1238 O   0  0  0  0  0  0  0  0  0  0  0  0
    0.0667    0.4232   -3.9877 C   0  0  0  0  0  0  0  0  0  0  0  0
    1.6324    0.6332   -7.4018 H   0  0  0  0  0  0  0  0  0  0  0  0
    0.9745   -0.9023   -8.0057 H   0  0  0  0  0  0  0  0  0  0  0  0
    0.1099    0.0080   -6.7623 H   0  0  0  0  0  0  0  0  0  0  0  0
    1.1907   -1.7535   -5.5400 H   0  0  0  0  0  0  0  0  0  0  0  0
    3.4531   -2.5652   -5.8613 H   0  0  0  0  0  0  0  0  0  0  0  0
    2.6089   -2.6109   -7.3885 H   0  0  0  0  0  0  0  0  0  0  0  0
    6.0443   -1.1068   -7.7186 H   0  0  0  0  0  0  0  0  0  0  0  0
    3.0013    2.1018   -3.3714 H   0  0  0  0  0  0  0  0  0  0  0  0
    1.4748    3.4770   -1.9985 H   0  0  0  0  0  0  0  0  0  0  0  0
   -2.0995    2.6139   -1.7828 H   0  0  0  0  0  0  0  0  0  0  0  0
    0.1799    3.8568   -0.2506 H   0  0  0  0  0  0  0  0  0  0  0  0
   -1.5055    4.2389    0.0212 H   0  0  0  0  0  0  0  0  0  0  0  0
    1.0304    1.4812    0.1957 H   0  0  0  0  0  0  0  0  0  0  0  0
    0.8066   -0.4906    1.6978 H   0  0  0  0  0  0  0  0  0  0  0  0
   -1.3106   -0.8637    2.9693 H   0  0  0  0  0  0  0  0  0  0  0  0
   -3.2087    0.7402    2.7302 H   0  0  0  0  0  0  0  0  0  0  0  0
   -2.9937    2.7170    1.2318 H   0  0  0  0  0  0  0  0  0  0  0  0
   -2.3453    0.1088   -3.6508 H   0  0  0  0  0  0  0  0  0  0  0  0
   -0.3484   -0.4257   -4.5220 H   0  0  0  0  0  0  0  0  0  0  0  0
  1  2  1  0  0  0  0
  1 24  1  0  0  0  0
  1 25  1  0  0  0  0
  1 26  1  0  0  0  0
  2  3  1  0  0  0  0
  2  7  1  0  0  0  0
  2 27  1  0  0  0  0
  3  4  1  0  0  0  0
  3 28  1  0  0  0  0
  3 29  1  0  0  0  0
  4  5  1  0  0  0  0
  4  6  2  0  0  0  0
  5 30  1  0  0  0  0
  7  8  2  0  0  0  0
  7  9  1  0  0  0  0
  9 10  1  0  0  0  0
  9 23  2  0  0  0  0
 10 11  2  0  0  0  0
 10 31  1  0  0  0  0
 11 12  1  0  0  0  0
 11 32  1  0  0  0  0
 12 13  1  0  0  0  0
 12 21  2  0  0  0  0
 13 14  1  0  0  0  0
 13 33  1  0  0  0  0
 14 15  1  0  0  0  0
 14 34  1  0  0  0  0
 14 35  1  0  0  0  0
 15 16  1  0  0  0  0
 15 20  2  0  0  0  0
 16 17  2  0  0  0  0
 16 36  1  0  0  0  0
 17 18  1  0  0  0  0
 17 37  1  0  0  0  0
 18 19  2  0  0  0  0
 18 38  1  0  0  0  0
 19 20  1  0  0  0  0
 19 39  1  0  0  0  0
 20 40  1  0  0  0  0
 21 22  1  0  0  0  0
 21 23  1  0  0  0  0
 22 41  1  0  0  0  0
 23 42  1  0  0  0  0
M  END
> <Energy FFXML>
-9.371565409208754

> <SMILES QCArchive>
[H]c1c(c(c(c(c1[H])[H])C([H])([H])N([H])c2c(c(c(c(c2O[H])[H])C(=O)[C@@]([H])(C([H])([H])[H])C([H])([H])C(=O)O[H])[H])[H])[H])[H]

> <Energy QCArchive>
-660912.0010466904

> <Record QCArchive>
36954843

> <final_energy>
-9.371565409208754

$$$$
