BRI-01068-01
  -OEChem-11282313333D

 42 43  0     1  0  0  0  0  0999 V2000
    0.4923   -1.2244   -8.0274 C   0  0  0  0  0  0  0  0  0  0  0  0
    1.8257   -1.0841   -7.2511 C   0  0  1  0  0  0  0  0  0  0  0  0
    2.3288    0.4033   -7.2864 C   0  0  0  0  0  0  0  0  0  0  0  0
    3.5802    0.6523   -6.4301 C   0  0  0  0  0  0  0  0  0  0  0  0
    3.7409    1.8488   -5.8482 O   0  0  0  0  0  0  0  0  0  0  0  0
    4.4465   -0.2000   -6.3336 O   0  0  0  0  0  0  0  0  0  0  0  0
    1.7022   -1.6975   -5.8164 C   0  0  0  0  0  0  0  0  0  0  0  0
    1.9059   -2.8993   -5.6962 O   0  0  0  0  0  0  0  0  0  0  0  0
    1.3146   -0.9074   -4.6043 C   0  0  0  0  0  0  0  0  0  0  0  0
    1.8793   -1.2554   -3.3541 C   0  0  0  0  0  0  0  0  0  0  0  0
    1.5482   -0.5327   -2.1918 C   0  0  0  0  0  0  0  0  0  0  0  0
    0.6386    0.5370   -2.2654 C   0  0  0  0  0  0  0  0  0  0  0  0
    0.2874    1.2764   -1.1403 N   0  0  0  0  0  0  0  0  0  0  0  0
    0.2593    0.6786    0.2056 C   0  0  0  0  0  0  0  0  0  0  0  0
   -0.4772    1.6335    1.1229 C   0  0  0  0  0  0  0  0  0  0  0  0
    0.1778    2.7826    1.6151 C   0  0  0  0  0  0  0  0  0  0  0  0
   -0.5100    3.6835    2.4514 C   0  0  0  0  0  0  0  0  0  0  0  0
   -1.8555    3.4426    2.7916 C   0  0  0  0  0  0  0  0  0  0  0  0
   -2.5155    2.3030    2.2914 C   0  0  0  0  0  0  0  0  0  0  0  0
   -1.8297    1.4007    1.4546 C   0  0  0  0  0  0  0  0  0  0  0  0
    0.0553    0.8844   -3.5046 C   0  0  0  0  0  0  0  0  0  0  0  0
   -0.8463    1.9118   -3.5755 O   0  0  0  0  0  0  0  0  0  0  0  0
    0.3863    0.1621   -4.6677 C   0  0  0  0  0  0  0  0  0  0  0  0
    0.1894   -2.2753   -8.0685 H   0  0  0  0  0  0  0  0  0  0  0  0
   -0.3068   -0.6542   -7.5486 H   0  0  0  0  0  0  0  0  0  0  0  0
    0.6103   -0.8641   -9.0535 H   0  0  0  0  0  0  0  0  0  0  0  0
    2.5768   -1.6840   -7.7757 H   0  0  0  0  0  0  0  0  0  0  0  0
    2.5605    0.6832   -8.3167 H   0  0  0  0  0  0  0  0  0  0  0  0
    1.5409    1.0817   -6.9583 H   0  0  0  0  0  0  0  0  0  0  0  0
    4.5651    1.8517   -5.3416 H   0  0  0  0  0  0  0  0  0  0  0  0
    2.5857   -2.0831   -3.2880 H   0  0  0  0  0  0  0  0  0  0  0  0
    2.0096   -0.8065   -1.2482 H   0  0  0  0  0  0  0  0  0  0  0  0
   -0.4502    1.9492   -1.3550 H   0  0  0  0  0  0  0  0  0  0  0  0
   -0.2552   -0.2878    0.1825 H   0  0  0  0  0  0  0  0  0  0  0  0
    1.2776    0.5217    0.5751 H   0  0  0  0  0  0  0  0  0  0  0  0
    1.2143    2.9754    1.3433 H   0  0  0  0  0  0  0  0  0  0  0  0
   -0.0018    4.5675    2.8316 H   0  0  0  0  0  0  0  0  0  0  0  0
   -2.3863    4.1394    3.4375 H   0  0  0  0  0  0  0  0  0  0  0  0
   -3.5568    2.1206    2.5500 H   0  0  0  0  0  0  0  0  0  0  0  0
   -2.3488    0.5263    1.0663 H   0  0  0  0  0  0  0  0  0  0  0  0
   -1.1482    2.0684   -4.4830 H   0  0  0  0  0  0  0  0  0  0  0  0
   -0.0960    0.4293   -5.6015 H   0  0  0  0  0  0  0  0  0  0  0  0
  1  2  1  0  0  0  0
  1 24  1  0  0  0  0
  1 25  1  0  0  0  0
  1 26  1  0  0  0  0
  2  3  1  0  0  0  0
  2  7  1  0  0  0  0
  2 27  1  0  0  0  0
  3  4  1  0  0  0  0
  3 28  1  0  0  0  0
  3 29  1  0  0  0  0
  4  5  1  0  0  0  0
  4  6  2  0  0  0  0
  5 30  1  0  0  0  0
  7  8  2  0  0  0  0
  7  9  1  0  0  0  0
  9 10  1  0  0  0  0
  9 23  2  0  0  0  0
 10 11  2  0  0  0  0
 10 31  1  0  0  0  0
 11 12  1  0  0  0  0
 11 32  1  0  0  0  0
 12 13  1  0  0  0  0
 12 21  2  0  0  0  0
 13 14  1  0  0  0  0
 13 33  1  0  0  0  0
 14 15  1  0  0  0  0
 14 34  1  0  0  0  0
 14 35  1  0  0  0  0
 15 16  1  0  0  0  0
 15 20  2  0  0  0  0
 16 17  2  0  0  0  0
 16 36  1  0  0  0  0
 17 18  1  0  0  0  0
 17 37  1  0  0  0  0
 18 19  2  0  0  0  0
 18 38  1  0  0  0  0
 19 20  1  0  0  0  0
 19 39  1  0  0  0  0
 20 40  1  0  0  0  0
 21 22  1  0  0  0  0
 21 23  1  0  0  0  0
 22 41  1  0  0  0  0
 23 42  1  0  0  0  0
M  END
> <Energy FFXML>
-8.15610323510716

> <SMILES QCArchive>
[H]c1c(c(c(c(c1[H])[H])C([H])([H])N([H])c2c(c(c(c(c2O[H])[H])C(=O)[C@@]([H])(C([H])([H])[H])C([H])([H])C(=O)O[H])[H])[H])[H])[H]

> <Energy QCArchive>
-660908.6132630302

> <Record QCArchive>
36954839

> <final_energy>
-8.15610323510716

$$$$
