BRI-00528-06
  -OEChem-11282313333D

 47 48  0     0  0  0  0  0  0999 V2000
    1.3663    5.4656    5.6849 C   0  0  0  0  0  0  0  0  0  0  0  0
   -0.0465    4.9231    5.4070 C   0  0  0  0  0  0  0  0  0  0  0  0
   -0.6097    4.2496    6.6750 C   0  0  0  0  0  0  0  0  0  0  0  0
    0.0544    3.9435    4.3354 O   0  0  0  0  0  0  0  0  0  0  0  0
   -1.0604    3.7900    3.5682 C   0  0  0  0  0  0  0  0  0  0  0  0
   -2.1180    4.3893    3.7058 O   0  0  0  0  0  0  0  0  0  0  0  0
   -0.9423    2.8773    2.5494 N   0  0  0  0  0  0  0  0  0  0  0  0
   -1.9745    2.6739    1.5208 C   0  0  0  0  0  0  0  0  0  0  0  0
   -1.9720    1.1826    1.1040 C   0  0  0  0  0  0  0  0  0  0  0  0
   -2.9775    0.9497   -0.0442 C   0  0  0  0  0  0  0  0  0  0  0  0
   -2.6370    1.8683   -1.1580 N   0  0  0  0  0  0  0  0  0  0  0  0
   -2.6904    3.3099   -0.8262 C   0  0  0  0  0  0  0  0  0  0  0  0
   -1.6777    3.5870    0.3049 C   0  0  0  0  0  0  0  0  0  0  0  0
   -1.8866    1.4193   -2.2579 C   0  0  0  0  0  0  0  0  0  0  0  0
   -1.6697    0.2172   -2.3580 O   0  0  0  0  0  0  0  0  0  0  0  0
   -1.3747    2.3596   -3.1143 O   0  0  0  0  0  0  0  0  0  0  0  0
   -0.7433    1.8394   -4.3189 C   0  0  0  0  0  0  0  0  0  0  0  0
   -1.7925    1.5089   -5.3697 C   0  0  0  0  0  0  0  0  0  0  0  0
   -2.2027    0.1736   -5.5718 C   0  0  0  0  0  0  0  0  0  0  0  0
   -3.1838   -0.1250   -6.5373 C   0  0  0  0  0  0  0  0  0  0  0  0
   -3.7618    0.9094   -7.2989 C   0  0  0  0  0  0  0  0  0  0  0  0
   -3.3635    2.2444   -7.0904 C   0  0  0  0  0  0  0  0  0  0  0  0
   -2.3830    2.5449   -6.1242 C   0  0  0  0  0  0  0  0  0  0  0  0
    1.3383    6.2068    6.4882 H   0  0  0  0  0  0  0  0  0  0  0  0
    2.0367    4.6528    5.9787 H   0  0  0  0  0  0  0  0  0  0  0  0
    1.7680    5.9435    4.7873 H   0  0  0  0  0  0  0  0  0  0  0  0
   -0.6857    5.7673    5.1224 H   0  0  0  0  0  0  0  0  0  0  0  0
    0.0161    3.4018    6.9673 H   0  0  0  0  0  0  0  0  0  0  0  0
   -0.6440    4.9641    7.5018 H   0  0  0  0  0  0  0  0  0  0  0  0
   -1.6257    3.8887    6.4922 H   0  0  0  0  0  0  0  0  0  0  0  0
   -0.0046    2.5197    2.4109 H   0  0  0  0  0  0  0  0  0  0  0  0
   -2.9669    2.9143    1.9211 H   0  0  0  0  0  0  0  0  0  0  0  0
   -2.2405    0.5580    1.9606 H   0  0  0  0  0  0  0  0  0  0  0  0
   -0.9710    0.8874    0.7755 H   0  0  0  0  0  0  0  0  0  0  0  0
   -2.9651   -0.1004   -0.3530 H   0  0  0  0  0  0  0  0  0  0  0  0
   -3.9950    1.1544    0.3032 H   0  0  0  0  0  0  0  0  0  0  0  0
   -2.4772    3.9436   -1.6921 H   0  0  0  0  0  0  0  0  0  0  0  0
   -3.6998    3.5737   -0.4950 H   0  0  0  0  0  0  0  0  0  0  0  0
   -1.7425    4.6362    0.6071 H   0  0  0  0  0  0  0  0  0  0  0  0
   -0.6623    3.4056   -0.0597 H   0  0  0  0  0  0  0  0  0  0  0  0
   -0.1164    0.9667   -4.1065 H   0  0  0  0  0  0  0  0  0  0  0  0
   -0.0695    2.6017   -4.7200 H   0  0  0  0  0  0  0  0  0  0  0  0
   -1.7704   -0.6274   -4.9738 H   0  0  0  0  0  0  0  0  0  0  0  0
   -3.4980   -1.1557   -6.6885 H   0  0  0  0  0  0  0  0  0  0  0  0
   -4.5213    0.6773   -8.0429 H   0  0  0  0  0  0  0  0  0  0  0  0
   -3.8164    3.0443   -7.6724 H   0  0  0  0  0  0  0  0  0  0  0  0
   -2.0852    3.5781   -5.9576 H   0  0  0  0  0  0  0  0  0  0  0  0
  1  2  1  0  0  0  0
  1 24  1  0  0  0  0
  1 25  1  0  0  0  0
  1 26  1  0  0  0  0
  2  3  1  0  0  0  0
  2  4  1  0  0  0  0
  2 27  1  0  0  0  0
  3 28  1  0  0  0  0
  3 29  1  0  0  0  0
  3 30  1  0  0  0  0
  4  5  1  0  0  0  0
  5  6  2  0  0  0  0
  5  7  1  0  0  0  0
  7  8  1  0  0  0  0
  7 31  1  0  0  0  0
  8  9  1  0  0  0  0
  8 13  1  0  0  0  0
  8 32  1  0  0  0  0
  9 10  1  0  0  0  0
  9 33  1  0  0  0  0
  9 34  1  0  0  0  0
 10 11  1  0  0  0  0
 10 35  1  0  0  0  0
 10 36  1  0  0  0  0
 11 12  1  0  0  0  0
 11 14  1  0  0  0  0
 12 13  1  0  0  0  0
 12 37  1  0  0  0  0
 12 38  1  0  0  0  0
 13 39  1  0  0  0  0
 13 40  1  0  0  0  0
 14 15  2  0  0  0  0
 14 16  1  0  0  0  0
 16 17  1  0  0  0  0
 17 18  1  0  0  0  0
 17 41  1  0  0  0  0
 17 42  1  0  0  0  0
 18 19  1  0  0  0  0
 18 23  2  0  0  0  0
 19 20  2  0  0  0  0
 19 43  1  0  0  0  0
 20 21  1  0  0  0  0
 20 44  1  0  0  0  0
 21 22  2  0  0  0  0
 21 45  1  0  0  0  0
 22 23  1  0  0  0  0
 22 46  1  0  0  0  0
 23 47  1  0  0  0  0
M  END
> <Energy FFXML>
-75.03980727706936

> <SMILES QCArchive>
[H]c1c(c(c(c(c1[H])[H])C([H])([H])OC(=O)N2C(C(C(C(C2([H])[H])([H])[H])([H])N([H])C(=O)OC([H])(C([H])([H])[H])C([H])([H])[H])([H])[H])([H])[H])[H])[H]

> <Energy QCArchive>
-673281.236767945

> <Record QCArchive>
36954916

> <final_energy>
-75.03980727706936

$$$$
