BRI-00528-05
  -OEChem-11282313333D

 47 48  0     0  0  0  0  0  0999 V2000
    1.1323    5.5475    4.5403 C   0  0  0  0  0  0  0  0  0  0  0  0
    0.5899    4.1848    5.0175 C   0  0  0  0  0  0  0  0  0  0  0  0
    1.7061    3.3929    5.7206 C   0  0  0  0  0  0  0  0  0  0  0  0
    0.1439    3.4068    3.8711 O   0  0  0  0  0  0  0  0  0  0  0  0
   -1.1523    3.5957    3.4981 C   0  0  0  0  0  0  0  0  0  0  0  0
   -1.9364    4.3903    3.9979 O   0  0  0  0  0  0  0  0  0  0  0  0
   -1.5624    2.8382    2.4286 N   0  0  0  0  0  0  0  0  0  0  0  0
   -2.8528    3.0343    1.7425 C   0  0  0  0  0  0  0  0  0  0  0  0
   -3.4094    1.6520    1.3062 C   0  0  0  0  0  0  0  0  0  0  0  0
   -3.0032    1.2941   -0.1391 C   0  0  0  0  0  0  0  0  0  0  0  0
   -3.5013    2.3337   -1.0740 N   0  0  0  0  0  0  0  0  0  0  0  0
   -3.6575    3.7301   -0.5835 C   0  0  0  0  0  0  0  0  0  0  0  0
   -2.6424    3.9995    0.5455 C   0  0  0  0  0  0  0  0  0  0  0  0
   -3.7595    2.0124   -2.4123 C   0  0  0  0  0  0  0  0  0  0  0  0
   -4.2482    2.8791   -3.1275 O   0  0  0  0  0  0  0  0  0  0  0  0
   -3.5130    0.7262   -2.8174 O   0  0  0  0  0  0  0  0  0  0  0  0
   -3.6461    0.4809   -4.2465 C   0  0  0  0  0  0  0  0  0  0  0  0
   -2.3814    0.9057   -4.9775 C   0  0  0  0  0  0  0  0  0  0  0  0
   -2.3314    2.1433   -5.6543 C   0  0  0  0  0  0  0  0  0  0  0  0
   -1.1531    2.5379   -6.3176 C   0  0  0  0  0  0  0  0  0  0  0  0
   -0.0206    1.7005   -6.3019 C   0  0  0  0  0  0  0  0  0  0  0  0
   -0.0639    0.4703   -5.6170 C   0  0  0  0  0  0  0  0  0  0  0  0
   -1.2412    0.0747   -4.9519 C   0  0  0  0  0  0  0  0  0  0  0  0
    1.5135    6.1230    5.3881 H   0  0  0  0  0  0  0  0  0  0  0  0
    0.3357    6.1262    4.0646 H   0  0  0  0  0  0  0  0  0  0  0  0
    1.9413    5.4052    3.8184 H   0  0  0  0  0  0  0  0  0  0  0  0
   -0.2217    4.3423    5.7377 H   0  0  0  0  0  0  0  0  0  0  0  0
    2.5421    3.2212    5.0366 H   0  0  0  0  0  0  0  0  0  0  0  0
    2.0714    3.9424    6.5925 H   0  0  0  0  0  0  0  0  0  0  0  0
    1.3246    2.4250    6.0570 H   0  0  0  0  0  0  0  0  0  0  0  0
   -0.8141    2.3319    1.9709 H   0  0  0  0  0  0  0  0  0  0  0  0
   -3.5837    3.4761    2.4303 H   0  0  0  0  0  0  0  0  0  0  0  0
   -4.5014    1.6693    1.3720 H   0  0  0  0  0  0  0  0  0  0  0  0
   -3.0656    0.8731    1.9930 H   0  0  0  0  0  0  0  0  0  0  0  0
   -1.9146    1.2110   -0.2162 H   0  0  0  0  0  0  0  0  0  0  0  0
   -3.4340    0.3177   -0.3832 H   0  0  0  0  0  0  0  0  0  0  0  0
   -4.6783    3.8895   -0.2221 H   0  0  0  0  0  0  0  0  0  0  0  0
   -3.4720    4.4485   -1.3890 H   0  0  0  0  0  0  0  0  0  0  0  0
   -2.7396    5.0328    0.8908 H   0  0  0  0  0  0  0  0  0  0  0  0
   -1.6299    3.8877    0.1457 H   0  0  0  0  0  0  0  0  0  0  0  0
   -4.5253    0.9815   -4.6662 H   0  0  0  0  0  0  0  0  0  0  0  0
   -3.8052   -0.5891   -4.4067 H   0  0  0  0  0  0  0  0  0  0  0  0
   -3.1997    2.8008   -5.6562 H   0  0  0  0  0  0  0  0  0  0  0  0
   -1.1191    3.4934   -6.8370 H   0  0  0  0  0  0  0  0  0  0  0  0
    0.8894    2.0077   -6.8136 H   0  0  0  0  0  0  0  0  0  0  0  0
    0.8134   -0.1730   -5.5986 H   0  0  0  0  0  0  0  0  0  0  0  0
   -1.2686   -0.8716   -4.4153 H   0  0  0  0  0  0  0  0  0  0  0  0
  1  2  1  0  0  0  0
  1 24  1  0  0  0  0
  1 25  1  0  0  0  0
  1 26  1  0  0  0  0
  2  3  1  0  0  0  0
  2  4  1  0  0  0  0
  2 27  1  0  0  0  0
  3 28  1  0  0  0  0
  3 29  1  0  0  0  0
  3 30  1  0  0  0  0
  4  5  1  0  0  0  0
  5  6  2  0  0  0  0
  5  7  1  0  0  0  0
  7  8  1  0  0  0  0
  7 31  1  0  0  0  0
  8  9  1  0  0  0  0
  8 13  1  0  0  0  0
  8 32  1  0  0  0  0
  9 10  1  0  0  0  0
  9 33  1  0  0  0  0
  9 34  1  0  0  0  0
 10 11  1  0  0  0  0
 10 35  1  0  0  0  0
 10 36  1  0  0  0  0
 11 12  1  0  0  0  0
 11 14  1  0  0  0  0
 12 13  1  0  0  0  0
 12 37  1  0  0  0  0
 12 38  1  0  0  0  0
 13 39  1  0  0  0  0
 13 40  1  0  0  0  0
 14 15  2  0  0  0  0
 14 16  1  0  0  0  0
 16 17  1  0  0  0  0
 17 18  1  0  0  0  0
 17 41  1  0  0  0  0
 17 42  1  0  0  0  0
 18 19  1  0  0  0  0
 18 23  2  0  0  0  0
 19 20  2  0  0  0  0
 19 43  1  0  0  0  0
 20 21  1  0  0  0  0
 20 44  1  0  0  0  0
 21 22  2  0  0  0  0
 21 45  1  0  0  0  0
 22 23  1  0  0  0  0
 22 46  1  0  0  0  0
 23 47  1  0  0  0  0
M  END
> <Energy FFXML>
-70.79760595147368

> <SMILES QCArchive>
[H]c1c(c(c(c(c1[H])[H])C([H])([H])OC(=O)N2C(C(C(C(C2([H])[H])([H])[H])([H])N([H])C(=O)OC([H])(C([H])([H])[H])C([H])([H])[H])([H])[H])([H])[H])[H])[H]

> <Energy QCArchive>
-673275.3098882773

> <Record QCArchive>
36954915

> <final_energy>
-70.79760595147368

$$$$
