BRI-01064-03
  -OEChem-11282313333D

 57 58  0     1  0  0  0  0  0999 V2000
   -1.9364    2.2446    2.5297 C   0  0  0  0  0  0  0  0  0  0  0  0
   -3.0485    1.2929    2.0362 C   0  0  0  0  0  0  0  0  0  0  0  0
   -3.2017    1.3457    0.4932 C   0  0  0  0  0  0  0  0  0  0  0  0
   -2.1010    0.5297   -0.2424 C   0  0  1  0  0  0  0  0  0  0  0  0
   -1.1924    0.5739    0.3636 H   0  0  0  0  0  0  0  0  0  0  0  0
   -2.5143   -0.9598   -0.3499 C   0  0  0  0  0  0  0  0  0  0  0  0
   -1.4137   -1.8361   -0.9447 C   0  0  0  0  0  0  0  0  0  0  0  0
   -0.2677   -1.6898   -0.5306 O   0  0  0  0  0  0  0  0  0  0  0  0
   -1.8224   -2.8785   -1.7352 O   0  0  0  0  0  0  0  0  0  0  0  0
   -0.7609   -3.6137   -2.4039 C   0  0  0  0  0  0  0  0  0  0  0  0
   -0.2588   -4.7644   -1.5143 C   0  0  0  0  0  0  0  0  0  0  0  0
   -1.8439    1.1841   -1.5786 N   0  0  1  0  0  0  0  0  0  0  0  0
   -0.4082    1.3421   -1.9921 C   0  0  0  0  0  0  0  0  0  0  0  0
    0.3849    2.0975   -0.9365 C   0  0  0  0  0  0  0  0  0  0  0  0
    1.4215    1.4533   -0.2274 C   0  0  0  0  0  0  0  0  0  0  0  0
    2.1381    2.1528    0.7633 C   0  0  0  0  0  0  0  0  0  0  0  0
    1.8190    3.4948    1.0496 C   0  0  0  0  0  0  0  0  0  0  0  0
    0.7796    4.1372    0.3485 C   0  0  0  0  0  0  0  0  0  0  0  0
    0.0621    3.4385   -0.6421 C   0  0  0  0  0  0  0  0  0  0  0  0
   -2.9103    1.1037   -2.6494 C   0  0  1  0  0  0  0  0  0  0  0  0
   -3.8763    1.0079   -2.1456 H   0  0  0  0  0  0  0  0  0  0  0  0
   -2.9764    2.4293   -3.4387 C   0  0  0  0  0  0  0  0  0  0  0  0
   -2.7718   -0.0896   -3.6145 C   0  0  0  0  0  0  0  0  0  0  0  0
   -1.6689   -0.2202   -4.4934 C   0  0  0  0  0  0  0  0  0  0  0  0
   -1.5840   -1.3135   -5.3773 C   0  0  0  0  0  0  0  0  0  0  0  0
   -2.6053   -2.2802   -5.4047 C   0  0  0  0  0  0  0  0  0  0  0  0
   -3.7163   -2.1496   -4.5522 C   0  0  0  0  0  0  0  0  0  0  0  0
   -3.8028   -1.0573   -3.6676 C   0  0  0  0  0  0  0  0  0  0  0  0
   -2.1339    3.2684    2.1996 H   0  0  0  0  0  0  0  0  0  0  0  0
   -0.9600    1.9363    2.1465 H   0  0  0  0  0  0  0  0  0  0  0  0
   -1.8932    2.2359    3.6222 H   0  0  0  0  0  0  0  0  0  0  0  0
   -3.9950    1.5897    2.4974 H   0  0  0  0  0  0  0  0  0  0  0  0
   -2.8361    0.2718    2.3651 H   0  0  0  0  0  0  0  0  0  0  0  0
   -4.1890    0.9667    0.2152 H   0  0  0  0  0  0  0  0  0  0  0  0
   -3.1654    2.3897    0.1667 H   0  0  0  0  0  0  0  0  0  0  0  0
   -2.7582   -1.3484    0.6397 H   0  0  0  0  0  0  0  0  0  0  0  0
   -3.4173   -1.0564   -0.9498 H   0  0  0  0  0  0  0  0  0  0  0  0
   -1.1568   -4.0331   -3.3331 H   0  0  0  0  0  0  0  0  0  0  0  0
    0.0690   -2.9566   -2.6862 H   0  0  0  0  0  0  0  0  0  0  0  0
    0.5013   -5.3440   -2.0446 H   0  0  0  0  0  0  0  0  0  0  0  0
   -1.0872   -5.4286   -1.2537 H   0  0  0  0  0  0  0  0  0  0  0  0
    0.1839   -4.3731   -0.5944 H   0  0  0  0  0  0  0  0  0  0  0  0
   -0.3348    1.9033   -2.9246 H   0  0  0  0  0  0  0  0  0  0  0  0
    0.0420    0.3626   -2.1739 H   0  0  0  0  0  0  0  0  0  0  0  0
    1.6581    0.4106   -0.4343 H   0  0  0  0  0  0  0  0  0  0  0  0
    2.9344    1.6526    1.3105 H   0  0  0  0  0  0  0  0  0  0  0  0
    2.3716    4.0333    1.8167 H   0  0  0  0  0  0  0  0  0  0  0  0
    0.5264    5.1706    0.5750 H   0  0  0  0  0  0  0  0  0  0  0  0
   -0.7534    3.9218   -1.1760 H   0  0  0  0  0  0  0  0  0  0  0  0
   -3.0596    3.2724   -2.7476 H   0  0  0  0  0  0  0  0  0  0  0  0
   -3.8528    2.4318   -4.0924 H   0  0  0  0  0  0  0  0  0  0  0  0
   -2.0896    2.5726   -4.0590 H   0  0  0  0  0  0  0  0  0  0  0  0
   -0.8748    0.5187   -4.5145 H   0  0  0  0  0  0  0  0  0  0  0  0
   -0.7295   -1.4061   -6.0444 H   0  0  0  0  0  0  0  0  0  0  0  0
   -2.5397   -3.1241   -6.0884 H   0  0  0  0  0  0  0  0  0  0  0  0
   -4.5098   -2.8937   -4.5751 H   0  0  0  0  0  0  0  0  0  0  0  0
   -4.6734   -0.9723   -3.0215 H   0  0  0  0  0  0  0  0  0  0  0  0
  1  2  1  0  0  0  0
  1 29  1  0  0  0  0
  1 30  1  0  0  0  0
  1 31  1  0  0  0  0
  2  3  1  0  0  0  0
  2 32  1  0  0  0  0
  2 33  1  0  0  0  0
  3  4  1  0  0  0  0
  3 34  1  0  0  0  0
  3 35  1  0  0  0  0
  4  5  1  0  0  0  0
  4  6  1  0  0  0  0
  4 12  1  0  0  0  0
  6  7  1  0  0  0  0
  6 36  1  0  0  0  0
  6 37  1  0  0  0  0
  7  8  2  0  0  0  0
  7  9  1  0  0  0  0
  9 10  1  0  0  0  0
 10 11  1  0  0  0  0
 10 38  1  0  0  0  0
 10 39  1  0  0  0  0
 11 40  1  0  0  0  0
 11 41  1  0  0  0  0
 11 42  1  0  0  0  0
 12 13  1  0  0  0  0
 12 20  1  0  0  0  0
 13 14  1  0  0  0  0
 13 43  1  0  0  0  0
 13 44  1  0  0  0  0
 14 15  1  0  0  0  0
 14 19  2  0  0  0  0
 15 16  2  0  0  0  0
 15 45  1  0  0  0  0
 16 17  1  0  0  0  0
 16 46  1  0  0  0  0
 17 18  2  0  0  0  0
 17 47  1  0  0  0  0
 18 19  1  0  0  0  0
 18 48  1  0  0  0  0
 19 49  1  0  0  0  0
 20 21  1  0  0  0  0
 20 22  1  0  0  0  0
 20 23  1  0  0  0  0
 22 50  1  0  0  0  0
 22 51  1  0  0  0  0
 22 52  1  0  0  0  0
 23 24  1  0  0  0  0
 23 28  2  0  0  0  0
 24 25  2  0  0  0  0
 24 53  1  0  0  0  0
 25 26  1  0  0  0  0
 25 54  1  0  0  0  0
 26 27  2  0  0  0  0
 26 55  1  0  0  0  0
 27 28  1  0  0  0  0
 27 56  1  0  0  0  0
 28 57  1  0  0  0  0
M  END
> <Energy FFXML>
-15.33134601025268

> <SMILES QCArchive>
[H]c1c(c(c(c(c1[H])[H])[C@]([H])(C([H])([H])[H])N([C@]([H])(C([H])([H])C(=O)OC([H])([H])C([H])([H])[H])C([H])([H])C([H])([H])C([H])([H])[H])C([H])([H])c2c(c(c(c(c2[H])[H])[H])[H])[H])[H])[H]

> <Energy QCArchive>
-690606.3214057126

> <Record QCArchive>
36954890

> <final_energy>
-15.33134601025268

$$$$
