BRI-01081-02
  -OEChem-11282313333D

 39 42  0     0  0  0  0  0  0999 V2000
   -2.7185    3.1058   -1.9356 O   0  0  0  0  0  0  0  0  0  0  0  0
   -1.2811    2.9917   -2.2240 S   0  0  0  0  0  0  0  0  0  0  0  0
   -0.7611    1.8098   -2.9275 O   0  0  0  0  0  0  0  0  0  0  0  0
   -0.8576    4.3977   -3.1259 N   0  0  0  0  0  0  0  0  0  0  0  0
   -1.7379    5.4501   -3.3970 C   0  0  0  0  0  0  0  0  0  0  0  0
   -1.0250    6.4919   -3.9551 C   0  0  0  0  0  0  0  0  0  0  0  0
    0.3737    6.0240   -4.0481 C   0  0  0  0  0  0  0  0  0  0  0  0
    0.4242    4.7359   -3.5212 C   0  0  0  0  0  0  0  0  0  0  0  0
    1.6304    4.0147   -3.4748 C   0  0  0  0  0  0  0  0  0  0  0  0
    2.8020    4.6150   -3.9857 C   0  0  0  0  0  0  0  0  0  0  0  0
    2.7497    5.9135   -4.5447 C   0  0  0  0  0  0  0  0  0  0  0  0
    1.5291    6.6238   -4.5868 C   0  0  0  0  0  0  0  0  0  0  0  0
   -1.5988    7.8055   -4.3486 C   0  0  0  0  0  0  0  0  0  0  0  0
   -2.9313    7.8840   -4.8128 C   0  0  0  0  0  0  0  0  0  0  0  0
   -3.4850    9.1271   -5.1778 C   0  0  0  0  0  0  0  0  0  0  0  0
   -2.7141   10.3002   -5.0731 C   0  0  0  0  0  0  0  0  0  0  0  0
   -1.3906   10.2310   -4.5987 C   0  0  0  0  0  0  0  0  0  0  0  0
   -0.8355    8.9882   -4.2347 C   0  0  0  0  0  0  0  0  0  0  0  0
   -0.4108    3.1120   -0.6198 C   0  0  0  0  0  0  0  0  0  0  0  0
   -0.4113    4.3334    0.0863 C   0  0  0  0  0  0  0  0  0  0  0  0
    0.2655    4.4307    1.3172 C   0  0  0  0  0  0  0  0  0  0  0  0
    0.9400    3.3118    1.8442 C   0  0  0  0  0  0  0  0  0  0  0  0
    0.9378    2.0926    1.1384 C   0  0  0  0  0  0  0  0  0  0  0  0
    0.2634    1.9893   -0.0935 C   0  0  0  0  0  0  0  0  0  0  0  0
   -2.8059    5.4570   -3.1767 H   0  0  0  0  0  0  0  0  0  0  0  0
    1.6603    3.0069   -3.0676 H   0  0  0  0  0  0  0  0  0  0  0  0
    3.7438    4.0700   -3.9633 H   0  0  0  0  0  0  0  0  0  0  0  0
    3.6517    6.3635   -4.9546 H   0  0  0  0  0  0  0  0  0  0  0  0
    1.4886    7.6085   -5.0442 H   0  0  0  0  0  0  0  0  0  0  0  0
   -3.5368    6.9859   -4.9110 H   0  0  0  0  0  0  0  0  0  0  0  0
   -4.5086    9.1797   -5.5434 H   0  0  0  0  0  0  0  0  0  0  0  0
   -3.1426   11.2601   -5.3548 H   0  0  0  0  0  0  0  0  0  0  0  0
   -0.7982   11.1391   -4.5067 H   0  0  0  0  0  0  0  0  0  0  0  0
    0.1761    8.9567   -3.8399 H   0  0  0  0  0  0  0  0  0  0  0  0
   -0.9304    5.2036   -0.3166 H   0  0  0  0  0  0  0  0  0  0  0  0
    0.2656    5.3730    1.8609 H   0  0  0  0  0  0  0  0  0  0  0  0
    1.4613    3.3890    2.7965 H   0  0  0  0  0  0  0  0  0  0  0  0
    1.4565    1.2268    1.5447 H   0  0  0  0  0  0  0  0  0  0  0  0
    0.2655    1.0413   -0.6335 H   0  0  0  0  0  0  0  0  0  0  0  0
  1  2  2  0  0  0  0
  2  3  2  0  0  0  0
  2  4  1  0  0  0  0
  2 19  1  0  0  0  0
  4  5  1  0  0  0  0
  4  8  1  0  0  0  0
  5  6  2  0  0  0  0
  5 25  1  0  0  0  0
  6  7  1  0  0  0  0
  6 13  1  0  0  0  0
  7  8  1  0  0  0  0
  7 12  2  0  0  0  0
  8  9  2  0  0  0  0
  9 10  1  0  0  0  0
  9 26  1  0  0  0  0
 10 11  2  0  0  0  0
 10 27  1  0  0  0  0
 11 12  1  0  0  0  0
 11 28  1  0  0  0  0
 12 29  1  0  0  0  0
 13 14  1  0  0  0  0
 13 18  2  0  0  0  0
 14 15  2  0  0  0  0
 14 30  1  0  0  0  0
 15 16  1  0  0  0  0
 15 31  1  0  0  0  0
 16 17  2  0  0  0  0
 16 32  1  0  0  0  0
 17 18  1  0  0  0  0
 17 33  1  0  0  0  0
 18 34  1  0  0  0  0
 19 20  1  0  0  0  0
 19 24  2  0  0  0  0
 20 21  2  0  0  0  0
 20 35  1  0  0  0  0
 21 22  1  0  0  0  0
 21 36  1  0  0  0  0
 22 23  2  0  0  0  0
 22 37  1  0  0  0  0
 23 24  1  0  0  0  0
 23 38  1  0  0  0  0
 24 39  1  0  0  0  0
M  END
> <Energy FFXML>
10.653314474947837

> <SMILES QCArchive>
[H]c1c(c(c(c(c1[H])[H])C2=C(N(c3c2c(c(c(c3[H])[H])[H])[H])S(=O)(=O)c4c(c(c(c(c4[H])[H])[H])[H])[H])[H])[H])[H]

> <Energy QCArchive>
-862603.2306002404

> <Record QCArchive>
36954866

> <final_energy>
10.653314474947837

$$$$
