BRI-01068-04
  -OEChem-11282313333D

 42 43  0     1  0  0  0  0  0999 V2000
    3.2221    1.4303   -7.6866 C   0  0  0  0  0  0  0  0  0  0  0  0
    2.4374    0.1265   -7.3949 C   0  0  1  0  0  0  0  0  0  0  0  0
    3.2780   -0.8315   -6.4783 C   0  0  0  0  0  0  0  0  0  0  0  0
    2.5160   -2.0980   -6.0608 C   0  0  0  0  0  0  0  0  0  0  0  0
    2.7025   -2.5971   -4.8308 O   0  0  0  0  0  0  0  0  0  0  0  0
    1.8001   -2.6801   -6.8575 O   0  0  0  0  0  0  0  0  0  0  0  0
    1.0022    0.4438   -6.8564 C   0  0  0  0  0  0  0  0  0  0  0  0
    0.1134    0.6071   -7.6831 O   0  0  0  0  0  0  0  0  0  0  0  0
    0.6713    0.5868   -5.4019 C   0  0  0  0  0  0  0  0  0  0  0  0
    1.5905    1.1301   -4.4727 C   0  0  0  0  0  0  0  0  0  0  0  0
    1.2446    1.2508   -3.1118 C   0  0  0  0  0  0  0  0  0  0  0  0
   -0.0272    0.8401   -2.6631 C   0  0  0  0  0  0  0  0  0  0  0  0
   -0.4307    1.0035   -1.3311 N   0  0  0  0  0  0  0  0  0  0  0  0
    0.4053    1.6914   -0.3286 C   0  0  0  0  0  0  0  0  0  0  0  0
   -0.3789    1.7359    0.9661 C   0  0  0  0  0  0  0  0  0  0  0  0
   -0.4256    0.5986    1.8007 C   0  0  0  0  0  0  0  0  0  0  0  0
   -1.1760    0.6282    2.9924 C   0  0  0  0  0  0  0  0  0  0  0  0
   -1.8873    1.7904    3.3490 C   0  0  0  0  0  0  0  0  0  0  0  0
   -1.8520    2.9228    2.5120 C   0  0  0  0  0  0  0  0  0  0  0  0
   -1.1023    2.8960    1.3195 C   0  0  0  0  0  0  0  0  0  0  0  0
   -0.9430    0.2832   -3.5850 C   0  0  0  0  0  0  0  0  0  0  0  0
   -2.1466   -0.1987   -3.1615 O   0  0  0  0  0  0  0  0  0  0  0  0
   -0.6041    0.1770   -4.9439 C   0  0  0  0  0  0  0  0  0  0  0  0
    2.6599    2.0600   -8.3832 H   0  0  0  0  0  0  0  0  0  0  0  0
    3.3986    2.0008   -6.7724 H   0  0  0  0  0  0  0  0  0  0  0  0
    4.1886    1.1976   -8.1427 H   0  0  0  0  0  0  0  0  0  0  0  0
    2.2973   -0.3920   -8.3492 H   0  0  0  0  0  0  0  0  0  0  0  0
    4.1851   -1.1368   -7.0052 H   0  0  0  0  0  0  0  0  0  0  0  0
    3.6101   -0.3102   -5.5801 H   0  0  0  0  0  0  0  0  0  0  0  0
    2.1532   -3.3855   -4.7189 H   0  0  0  0  0  0  0  0  0  0  0  0
    2.5686    1.4853   -4.7830 H   0  0  0  0  0  0  0  0  0  0  0  0
    1.9722    1.6804   -2.4311 H   0  0  0  0  0  0  0  0  0  0  0  0
   -1.4306    1.1622   -1.2221 H   0  0  0  0  0  0  0  0  0  0  0  0
    1.3427    1.1472   -0.1740 H   0  0  0  0  0  0  0  0  0  0  0  0
    0.6408    2.7087   -0.6582 H   0  0  0  0  0  0  0  0  0  0  0  0
    0.1154   -0.3045    1.5230 H   0  0  0  0  0  0  0  0  0  0  0  0
   -1.2080   -0.2483    3.6369 H   0  0  0  0  0  0  0  0  0  0  0  0
   -2.4669    1.8124    4.2701 H   0  0  0  0  0  0  0  0  0  0  0  0
   -2.4059    3.8186    2.7868 H   0  0  0  0  0  0  0  0  0  0  0  0
   -1.0860    3.7745    0.6768 H   0  0  0  0  0  0  0  0  0  0  0  0
   -2.0992   -0.5011   -2.2413 H   0  0  0  0  0  0  0  0  0  0  0  0
   -1.3306   -0.2467   -5.6363 H   0  0  0  0  0  0  0  0  0  0  0  0
  1  2  1  0  0  0  0
  1 24  1  0  0  0  0
  1 25  1  0  0  0  0
  1 26  1  0  0  0  0
  2  3  1  0  0  0  0
  2  7  1  0  0  0  0
  2 27  1  0  0  0  0
  3  4  1  0  0  0  0
  3 28  1  0  0  0  0
  3 29  1  0  0  0  0
  4  5  1  0  0  0  0
  4  6  2  0  0  0  0
  5 30  1  0  0  0  0
  7  8  2  0  0  0  0
  7  9  1  0  0  0  0
  9 10  1  0  0  0  0
  9 23  2  0  0  0  0
 10 11  2  0  0  0  0
 10 31  1  0  0  0  0
 11 12  1  0  0  0  0
 11 32  1  0  0  0  0
 12 13  1  0  0  0  0
 12 21  2  0  0  0  0
 13 14  1  0  0  0  0
 13 33  1  0  0  0  0
 14 15  1  0  0  0  0
 14 34  1  0  0  0  0
 14 35  1  0  0  0  0
 15 16  1  0  0  0  0
 15 20  2  0  0  0  0
 16 17  2  0  0  0  0
 16 36  1  0  0  0  0
 17 18  1  0  0  0  0
 17 37  1  0  0  0  0
 18 19  2  0  0  0  0
 18 38  1  0  0  0  0
 19 20  1  0  0  0  0
 19 39  1  0  0  0  0
 20 40  1  0  0  0  0
 21 22  1  0  0  0  0
 21 23  1  0  0  0  0
 22 41  1  0  0  0  0
 23 42  1  0  0  0  0
M  END
> <Energy FFXML>
-5.106542366274483

> <SMILES QCArchive>
[H]c1c(c(c(c(c1[H])[H])C([H])([H])N([H])c2c(c(c(c(c2O[H])[H])C(=O)[C@@]([H])(C([H])([H])[H])C([H])([H])C(=O)O[H])[H])[H])[H])[H]

> <Energy QCArchive>
-660907.7470968986

> <Record QCArchive>
36954842

> <final_energy>
-5.106542366274483

$$$$
