BRI-01347-09
  -OEChem-11282313333D

 46 46  0     1  0  0  0  0  0999 V2000
   -6.1550    0.1990    8.3556 C   0  0  0  0  0  0  0  0  0  0  0  0
   -5.1888    1.2375    7.7483 C   0  0  0  0  0  0  0  0  0  0  0  0
   -4.2556    0.6090    6.6800 C   0  0  0  0  0  0  0  0  0  0  0  0
   -4.9989    0.2307    5.3800 C   0  0  0  0  0  0  0  0  0  0  0  0
   -5.5750    1.4197    4.7754 O   0  0  0  0  0  0  0  0  0  0  0  0
   -6.1489    1.2300    3.5494 C   0  0  0  0  0  0  0  0  0  0  0  0
   -6.1823    0.1360    2.9911 O   0  0  0  0  0  0  0  0  0  0  0  0
   -6.6852    2.3588    2.9953 O   0  0  0  0  0  0  0  0  0  0  0  0
   -7.2196    2.1943    1.6541 C   0  0  0  0  0  0  0  0  0  0  0  0
   -7.6725    3.5596    1.0883 C   0  0  0  0  0  0  0  0  0  0  0  0
   -6.5786    4.6733    1.1472 C   0  0  0  0  0  0  0  0  0  0  0  0
   -5.3005    4.4222    0.2841 C   0  0  2  0  0  0  0  0  0  0  0  0
   -5.6526    4.1333   -1.1882 C   0  0  0  0  0  0  0  0  0  0  0  0
   -4.5232    3.2998    0.7901 O   0  0  0  0  0  0  0  0  0  0  0  0
   -3.6990    3.5699    1.8598 C   0  0  0  0  0  0  0  0  0  0  0  0
   -3.5203    4.6917    2.3248 O   0  0  0  0  0  0  0  0  0  0  0  0
   -2.9598    2.4257    2.4747 C   0  0  0  0  0  0  0  0  0  0  0  0
   -2.1103    2.6312    3.5906 C   0  0  0  0  0  0  0  0  0  0  0  0
   -1.4271    1.5456    4.1739 C   0  0  0  0  0  0  0  0  0  0  0  0
   -1.5880    0.2504    3.6520 C   0  0  0  0  0  0  0  0  0  0  0  0
   -0.7586   -1.0951    4.3917 Cl  0  0  0  0  0  0  0  0  0  0  0  0
   -2.4272    0.0348    2.5448 C   0  0  0  0  0  0  0  0  0  0  0  0
   -3.1122    1.1163    1.9566 C   0  0  0  0  0  0  0  0  0  0  0  0
   -6.7233    0.6512    9.1732 H   0  0  0  0  0  0  0  0  0  0  0  0
   -6.8651   -0.1552    7.6036 H   0  0  0  0  0  0  0  0  0  0  0  0
   -5.6001   -0.6560    8.7521 H   0  0  0  0  0  0  0  0  0  0  0  0
   -4.5749    1.6593    8.5496 H   0  0  0  0  0  0  0  0  0  0  0  0
   -5.7585    2.0651    7.3147 H   0  0  0  0  0  0  0  0  0  0  0  0
   -3.4623    1.3211    6.4360 H   0  0  0  0  0  0  0  0  0  0  0  0
   -3.7690   -0.2795    7.0924 H   0  0  0  0  0  0  0  0  0  0  0  0
   -5.7807   -0.5048    5.5925 H   0  0  0  0  0  0  0  0  0  0  0  0
   -4.2879   -0.2375    4.6929 H   0  0  0  0  0  0  0  0  0  0  0  0
   -8.0766    1.5131    1.6772 H   0  0  0  0  0  0  0  0  0  0  0  0
   -6.4728    1.7497    0.9894 H   0  0  0  0  0  0  0  0  0  0  0  0
   -8.0225    3.4292    0.0615 H   0  0  0  0  0  0  0  0  0  0  0  0
   -8.5389    3.8974    1.6642 H   0  0  0  0  0  0  0  0  0  0  0  0
   -7.0310    5.6144    0.8222 H   0  0  0  0  0  0  0  0  0  0  0  0
   -6.2834    4.8366    2.1879 H   0  0  0  0  0  0  0  0  0  0  0  0
   -4.6957    5.3366    0.2934 H   0  0  0  0  0  0  0  0  0  0  0  0
   -6.3287    4.8994   -1.5773 H   0  0  0  0  0  0  0  0  0  0  0  0
   -4.7431    4.1365   -1.7950 H   0  0  0  0  0  0  0  0  0  0  0  0
   -6.1259    3.1532   -1.2887 H   0  0  0  0  0  0  0  0  0  0  0  0
   -1.9838    3.6300    4.0079 H   0  0  0  0  0  0  0  0  0  0  0  0
   -0.7769    1.7037    5.0312 H   0  0  0  0  0  0  0  0  0  0  0  0
   -2.5551   -0.9715    2.1520 H   0  0  0  0  0  0  0  0  0  0  0  0
   -3.7707    0.9264    1.1096 H   0  0  0  0  0  0  0  0  0  0  0  0
  1  2  1  0  0  0  0
  1 24  1  0  0  0  0
  1 25  1  0  0  0  0
  1 26  1  0  0  0  0
  2  3  1  0  0  0  0
  2 27  1  0  0  0  0
  2 28  1  0  0  0  0
  3  4  1  0  0  0  0
  3 29  1  0  0  0  0
  3 30  1  0  0  0  0
  4  5  1  0  0  0  0
  4 31  1  0  0  0  0
  4 32  1  0  0  0  0
  5  6  1  0  0  0  0
  6  7  2  0  0  0  0
  6  8  1  0  0  0  0
  8  9  1  0  0  0  0
  9 10  1  0  0  0  0
  9 33  1  0  0  0  0
  9 34  1  0  0  0  0
 10 11  1  0  0  0  0
 10 35  1  0  0  0  0
 10 36  1  0  0  0  0
 11 12  1  0  0  0  0
 11 37  1  0  0  0  0
 11 38  1  0  0  0  0
 12 13  1  0  0  0  0
 12 14  1  0  0  0  0
 12 39  1  0  0  0  0
 13 40  1  0  0  0  0
 13 41  1  0  0  0  0
 13 42  1  0  0  0  0
 14 15  1  0  0  0  0
 15 16  2  0  0  0  0
 15 17  1  0  0  0  0
 17 18  1  0  0  0  0
 17 23  2  0  0  0  0
 18 19  2  0  0  0  0
 18 43  1  0  0  0  0
 19 20  1  0  0  0  0
 19 44  1  0  0  0  0
 20 21  1  0  0  0  0
 20 22  2  0  0  0  0
 22 23  1  0  0  0  0
 22 45  1  0  0  0  0
 23 46  1  0  0  0  0
M  END
> <Energy FFXML>
-25.304631510722235

> <SMILES QCArchive>
[H]c1c(c(c(c(c1C(=O)O[C@@]([H])(C([H])([H])[H])C([H])([H])C([H])([H])C([H])([H])OC(=O)OC([H])([H])C([H])([H])C([H])([H])C([H])([H])[H])[H])[H])Cl)[H]

> <Energy QCArchive>
-940144.7276494105

> <Record QCArchive>
36954929

> <final_energy>
-25.304631510722235

$$$$
