BRI-01064-02
  -OEChem-11282313333D

 57 58  0     1  0  0  0  0  0999 V2000
   -1.1884    0.1200    3.0426 C   0  0  0  0  0  0  0  0  0  0  0  0
   -2.2373    0.5855    2.0106 C   0  0  0  0  0  0  0  0  0  0  0  0
   -2.0389   -0.1093    0.6321 C   0  0  0  0  0  0  0  0  0  0  0  0
   -1.4859    0.8611   -0.4631 C   0  0  1  0  0  0  0  0  0  0  0  0
   -2.0642    1.7818   -0.3441 H   0  0  0  0  0  0  0  0  0  0  0  0
    0.0038    1.2573   -0.2345 C   0  0  0  0  0  0  0  0  0  0  0  0
    1.0056    0.1284   -0.4548 C   0  0  0  0  0  0  0  0  0  0  0  0
    1.6731    0.1577   -1.4827 O   0  0  0  0  0  0  0  0  0  0  0  0
    1.1483   -0.7981    0.5467 O   0  0  0  0  0  0  0  0  0  0  0  0
    2.0981   -1.8697    0.2867 C   0  0  0  0  0  0  0  0  0  0  0  0
    3.5258   -1.4258    0.6528 C   0  0  0  0  0  0  0  0  0  0  0  0
   -1.7537    0.3501   -1.8691 N   0  0  2  0  0  0  0  0  0  0  0  0
   -1.3303   -1.0720   -2.1611 C   0  0  0  0  0  0  0  0  0  0  0  0
   -2.4498   -1.8920   -2.7963 C   0  0  0  0  0  0  0  0  0  0  0  0
   -2.1270   -2.9193   -3.7095 C   0  0  0  0  0  0  0  0  0  0  0  0
   -3.1466   -3.7013   -4.2871 C   0  0  0  0  0  0  0  0  0  0  0  0
   -4.4931   -3.4656   -3.9489 C   0  0  0  0  0  0  0  0  0  0  0  0
   -4.8205   -2.4494   -3.0309 C   0  0  0  0  0  0  0  0  0  0  0  0
   -3.8019   -1.6674   -2.4524 C   0  0  0  0  0  0  0  0  0  0  0  0
   -1.4750    1.3396   -2.9841 C   0  0  1  0  0  0  0  0  0  0  0  0
   -0.3947    1.5013   -3.0472 H   0  0  0  0  0  0  0  0  0  0  0  0
   -1.9530    0.8319   -4.3663 C   0  0  0  0  0  0  0  0  0  0  0  0
   -2.1643    2.6809   -2.7243 C   0  0  0  0  0  0  0  0  0  0  0  0
   -1.4139    3.8771   -2.7374 C   0  0  0  0  0  0  0  0  0  0  0  0
   -2.0481    5.1125   -2.4999 C   0  0  0  0  0  0  0  0  0  0  0  0
   -3.4339    5.1582   -2.2520 C   0  0  0  0  0  0  0  0  0  0  0  0
   -4.1876    3.9686   -2.2426 C   0  0  0  0  0  0  0  0  0  0  0  0
   -3.5552    2.7330   -2.4801 C   0  0  0  0  0  0  0  0  0  0  0  0
   -1.2478   -0.9629    3.1852 H   0  0  0  0  0  0  0  0  0  0  0  0
   -0.1785    0.3748    2.7127 H   0  0  0  0  0  0  0  0  0  0  0  0
   -1.3691    0.6053    4.0057 H   0  0  0  0  0  0  0  0  0  0  0  0
   -3.2344    0.3442    2.3909 H   0  0  0  0  0  0  0  0  0  0  0  0
   -2.1941    1.6736    1.9073 H   0  0  0  0  0  0  0  0  0  0  0  0
   -3.0094   -0.4863    0.3001 H   0  0  0  0  0  0  0  0  0  0  0  0
   -1.3970   -0.9840    0.7481 H   0  0  0  0  0  0  0  0  0  0  0  0
    0.2622    2.0904   -0.8901 H   0  0  0  0  0  0  0  0  0  0  0  0
    0.1305    1.6405    0.7781 H   0  0  0  0  0  0  0  0  0  0  0  0
    1.8291   -2.7334    0.9015 H   0  0  0  0  0  0  0  0  0  0  0  0
    2.0562   -2.2029   -0.7560 H   0  0  0  0  0  0  0  0  0  0  0  0
    3.5663   -1.1109    1.6990 H   0  0  0  0  0  0  0  0  0  0  0  0
    3.8430   -0.5929    0.0195 H   0  0  0  0  0  0  0  0  0  0  0  0
    4.2243   -2.2543    0.5092 H   0  0  0  0  0  0  0  0  0  0  0  0
   -1.0031   -1.5893   -1.2592 H   0  0  0  0  0  0  0  0  0  0  0  0
   -0.4585   -1.0671   -2.8225 H   0  0  0  0  0  0  0  0  0  0  0  0
   -1.0888   -3.1093   -3.9734 H   0  0  0  0  0  0  0  0  0  0  0  0
   -2.8936   -4.4884   -4.9944 H   0  0  0  0  0  0  0  0  0  0  0  0
   -5.2805   -4.0692   -4.3958 H   0  0  0  0  0  0  0  0  0  0  0  0
   -5.8601   -2.2662   -2.7678 H   0  0  0  0  0  0  0  0  0  0  0  0
   -4.0602   -0.8800   -1.7486 H   0  0  0  0  0  0  0  0  0  0  0  0
   -1.8487    1.6221   -5.1148 H   0  0  0  0  0  0  0  0  0  0  0  0
   -3.0028    0.5304   -4.3253 H   0  0  0  0  0  0  0  0  0  0  0  0
   -1.3522   -0.0177   -4.6977 H   0  0  0  0  0  0  0  0  0  0  0  0
   -0.3434    3.8496   -2.9305 H   0  0  0  0  0  0  0  0  0  0  0  0
   -1.4671    6.0324   -2.5100 H   0  0  0  0  0  0  0  0  0  0  0  0
   -3.9229    6.1130   -2.0698 H   0  0  0  0  0  0  0  0  0  0  0  0
   -5.2583    4.0024   -2.0523 H   0  0  0  0  0  0  0  0  0  0  0  0
   -4.1310    1.8094   -2.4680 H   0  0  0  0  0  0  0  0  0  0  0  0
  1  2  1  0  0  0  0
  1 29  1  0  0  0  0
  1 30  1  0  0  0  0
  1 31  1  0  0  0  0
  2  3  1  0  0  0  0
  2 32  1  0  0  0  0
  2 33  1  0  0  0  0
  3  4  1  0  0  0  0
  3 34  1  0  0  0  0
  3 35  1  0  0  0  0
  4  5  1  0  0  0  0
  4  6  1  0  0  0  0
  4 12  1  0  0  0  0
  6  7  1  0  0  0  0
  6 36  1  0  0  0  0
  6 37  1  0  0  0  0
  7  8  2  0  0  0  0
  7  9  1  0  0  0  0
  9 10  1  0  0  0  0
 10 11  1  0  0  0  0
 10 38  1  0  0  0  0
 10 39  1  0  0  0  0
 11 40  1  0  0  0  0
 11 41  1  0  0  0  0
 11 42  1  0  0  0  0
 12 13  1  0  0  0  0
 12 20  1  0  0  0  0
 13 14  1  0  0  0  0
 13 43  1  0  0  0  0
 13 44  1  0  0  0  0
 14 15  1  0  0  0  0
 14 19  2  0  0  0  0
 15 16  2  0  0  0  0
 15 45  1  0  0  0  0
 16 17  1  0  0  0  0
 16 46  1  0  0  0  0
 17 18  2  0  0  0  0
 17 47  1  0  0  0  0
 18 19  1  0  0  0  0
 18 48  1  0  0  0  0
 19 49  1  0  0  0  0
 20 21  1  0  0  0  0
 20 22  1  0  0  0  0
 20 23  1  0  0  0  0
 22 50  1  0  0  0  0
 22 51  1  0  0  0  0
 22 52  1  0  0  0  0
 23 24  1  0  0  0  0
 23 28  2  0  0  0  0
 24 25  2  0  0  0  0
 24 53  1  0  0  0  0
 25 26  1  0  0  0  0
 25 54  1  0  0  0  0
 26 27  2  0  0  0  0
 26 55  1  0  0  0  0
 27 28  1  0  0  0  0
 27 56  1  0  0  0  0
 28 57  1  0  0  0  0
M  END
> <Energy FFXML>
-14.920760168580905

> <SMILES QCArchive>
[H]c1c(c(c(c(c1[H])[H])[C@]([H])(C([H])([H])[H])N([C@]([H])(C([H])([H])C(=O)OC([H])([H])C([H])([H])[H])C([H])([H])C([H])([H])C([H])([H])[H])C([H])([H])c2c(c(c(c(c2[H])[H])[H])[H])[H])[H])[H]

> <Energy QCArchive>
-690601.8104289057

> <Record QCArchive>
36954889

> <final_energy>
-14.920760168580905

$$$$
