BRI-01064-06
  -OEChem-11282313333D

 57 58  0     1  0  0  0  0  0999 V2000
    0.8221    2.9525    1.8291 C   0  0  0  0  0  0  0  0  0  0  0  0
    0.0057    2.5861    0.5755 C   0  0  0  0  0  0  0  0  0  0  0  0
   -0.1725    1.0537    0.4699 C   0  0  0  0  0  0  0  0  0  0  0  0
   -0.7445    0.6117   -0.9167 C   0  0  1  0  0  0  0  0  0  0  0  0
   -0.0391    0.9393   -1.6879 H   0  0  0  0  0  0  0  0  0  0  0  0
   -0.8584   -0.9318   -0.9965 C   0  0  0  0  0  0  0  0  0  0  0  0
    0.4920   -1.6535   -1.0394 C   0  0  0  0  0  0  0  0  0  0  0  0
    1.4831   -1.0489   -1.4343 O   0  0  0  0  0  0  0  0  0  0  0  0
    0.4943   -2.9680   -0.6574 O   0  0  0  0  0  0  0  0  0  0  0  0
    1.7875   -3.6225   -0.7344 C   0  0  0  0  0  0  0  0  0  0  0  0
    1.6362   -5.0782   -0.2743 C   0  0  0  0  0  0  0  0  0  0  0  0
   -2.1098    1.1880   -1.2195 N   0  0  2  0  0  0  0  0  0  0  0  0
   -2.1653    2.4353   -2.0624 C   0  0  0  0  0  0  0  0  0  0  0  0
   -1.4477    2.2495   -3.3932 C   0  0  0  0  0  0  0  0  0  0  0  0
   -1.7235    1.1216   -4.1966 C   0  0  0  0  0  0  0  0  0  0  0  0
   -1.0657    0.9530   -5.4302 C   0  0  0  0  0  0  0  0  0  0  0  0
   -0.1341    1.9138   -5.8683 C   0  0  0  0  0  0  0  0  0  0  0  0
    0.1406    3.0430   -5.0725 C   0  0  0  0  0  0  0  0  0  0  0  0
   -0.5156    3.2124   -3.8373 C   0  0  0  0  0  0  0  0  0  0  0  0
   -3.2446    0.8929   -0.2625 C   0  0  1  0  0  0  0  0  0  0  0  0
   -2.8291    0.4560    0.6469 H   0  0  0  0  0  0  0  0  0  0  0  0
   -4.0382    2.1445    0.1811 C   0  0  0  0  0  0  0  0  0  0  0  0
   -4.1947   -0.1393   -0.8737 C   0  0  0  0  0  0  0  0  0  0  0  0
   -4.4873   -1.3267   -0.1650 C   0  0  0  0  0  0  0  0  0  0  0  0
   -5.3620   -2.2851   -0.7131 C   0  0  0  0  0  0  0  0  0  0  0  0
   -5.9527   -2.0628   -1.9713 C   0  0  0  0  0  0  0  0  0  0  0  0
   -5.6695   -0.8812   -2.6818 C   0  0  0  0  0  0  0  0  0  0  0  0
   -4.7953    0.0782   -2.1350 C   0  0  0  0  0  0  0  0  0  0  0  0
    0.9275    4.0383    1.9045 H   0  0  0  0  0  0  0  0  0  0  0  0
    0.3208    2.5882    2.7304 H   0  0  0  0  0  0  0  0  0  0  0  0
    1.8211    2.5101    1.7773 H   0  0  0  0  0  0  0  0  0  0  0  0
    0.5198    2.9616   -0.3144 H   0  0  0  0  0  0  0  0  0  0  0  0
   -0.9722    3.0696    0.6311 H   0  0  0  0  0  0  0  0  0  0  0  0
   -0.8073    0.7000    1.2847 H   0  0  0  0  0  0  0  0  0  0  0  0
    0.8027    0.5812    0.6154 H   0  0  0  0  0  0  0  0  0  0  0  0
   -1.4226   -1.3023   -0.1398 H   0  0  0  0  0  0  0  0  0  0  0  0
   -1.4198   -1.2040   -1.8926 H   0  0  0  0  0  0  0  0  0  0  0  0
    2.1642   -3.6023   -1.7627 H   0  0  0  0  0  0  0  0  0  0  0  0
    2.5130   -3.1106   -0.0932 H   0  0  0  0  0  0  0  0  0  0  0  0
    0.9247   -5.6045   -0.9165 H   0  0  0  0  0  0  0  0  0  0  0  0
    2.6003   -5.5909   -0.3251 H   0  0  0  0  0  0  0  0  0  0  0  0
    1.2746   -5.1121    0.7571 H   0  0  0  0  0  0  0  0  0  0  0  0
   -1.7289    3.2757   -1.5178 H   0  0  0  0  0  0  0  0  0  0  0  0
   -3.1988    2.7086   -2.2815 H   0  0  0  0  0  0  0  0  0  0  0  0
   -2.4336    0.3732   -3.8508 H   0  0  0  0  0  0  0  0  0  0  0  0
   -1.2746    0.0769   -6.0405 H   0  0  0  0  0  0  0  0  0  0  0  0
    0.3763    1.7812   -6.8200 H   0  0  0  0  0  0  0  0  0  0  0  0
    0.8628    3.7830   -5.4111 H   0  0  0  0  0  0  0  0  0  0  0  0
   -0.2947    4.0862   -3.2283 H   0  0  0  0  0  0  0  0  0  0  0  0
   -4.6329    2.5520   -0.6394 H   0  0  0  0  0  0  0  0  0  0  0  0
   -3.3589    2.9158    0.5510 H   0  0  0  0  0  0  0  0  0  0  0  0
   -4.7245    1.8792    0.9896 H   0  0  0  0  0  0  0  0  0  0  0  0
   -4.0359   -1.5117    0.8072 H   0  0  0  0  0  0  0  0  0  0  0  0
   -5.5802   -3.1991   -0.1645 H   0  0  0  0  0  0  0  0  0  0  0  0
   -6.6271   -2.8041   -2.3951 H   0  0  0  0  0  0  0  0  0  0  0  0
   -6.1243   -0.7086   -3.6550 H   0  0  0  0  0  0  0  0  0  0  0  0
   -4.5818    0.9838   -2.6953 H   0  0  0  0  0  0  0  0  0  0  0  0
  1  2  1  0  0  0  0
  1 29  1  0  0  0  0
  1 30  1  0  0  0  0
  1 31  1  0  0  0  0
  2  3  1  0  0  0  0
  2 32  1  0  0  0  0
  2 33  1  0  0  0  0
  3  4  1  0  0  0  0
  3 34  1  0  0  0  0
  3 35  1  0  0  0  0
  4  5  1  0  0  0  0
  4  6  1  0  0  0  0
  4 12  1  0  0  0  0
  6  7  1  0  0  0  0
  6 36  1  0  0  0  0
  6 37  1  0  0  0  0
  7  8  2  0  0  0  0
  7  9  1  0  0  0  0
  9 10  1  0  0  0  0
 10 11  1  0  0  0  0
 10 38  1  0  0  0  0
 10 39  1  0  0  0  0
 11 40  1  0  0  0  0
 11 41  1  0  0  0  0
 11 42  1  0  0  0  0
 12 13  1  0  0  0  0
 12 20  1  0  0  0  0
 13 14  1  0  0  0  0
 13 43  1  0  0  0  0
 13 44  1  0  0  0  0
 14 15  1  0  0  0  0
 14 19  2  0  0  0  0
 15 16  2  0  0  0  0
 15 45  1  0  0  0  0
 16 17  1  0  0  0  0
 16 46  1  0  0  0  0
 17 18  2  0  0  0  0
 17 47  1  0  0  0  0
 18 19  1  0  0  0  0
 18 48  1  0  0  0  0
 19 49  1  0  0  0  0
 20 21  1  0  0  0  0
 20 22  1  0  0  0  0
 20 23  1  0  0  0  0
 22 50  1  0  0  0  0
 22 51  1  0  0  0  0
 22 52  1  0  0  0  0
 23 24  1  0  0  0  0
 23 28  2  0  0  0  0
 24 25  2  0  0  0  0
 24 53  1  0  0  0  0
 25 26  1  0  0  0  0
 25 54  1  0  0  0  0
 26 27  2  0  0  0  0
 26 55  1  0  0  0  0
 27 28  1  0  0  0  0
 27 56  1  0  0  0  0
 28 57  1  0  0  0  0
M  END
> <Energy FFXML>
-17.115988341387485

> <SMILES QCArchive>
[H]c1c(c(c(c(c1[H])[H])[C@]([H])(C([H])([H])[H])N([C@]([H])(C([H])([H])C(=O)OC([H])([H])C([H])([H])[H])C([H])([H])C([H])([H])C([H])([H])[H])C([H])([H])c2c(c(c(c(c2[H])[H])[H])[H])[H])[H])[H]

> <Energy QCArchive>
-690602.8578894178

> <Record QCArchive>
36954893

> <final_energy>
-17.115988341387485

$$$$
