BRI-00528-00
  -OEChem-11282313333D

 47 48  0     0  0  0  0  0  0999 V2000
   -2.1696    6.8260    2.8817 C   0  0  0  0  0  0  0  0  0  0  0  0
   -1.9512    5.3227    3.1258 C   0  0  0  0  0  0  0  0  0  0  0  0
   -3.2046    4.7086    3.7816 C   0  0  0  0  0  0  0  0  0  0  0  0
   -1.7167    4.6919    1.8366 O   0  0  0  0  0  0  0  0  0  0  0  0
   -0.9426    3.5706    1.8603 C   0  0  0  0  0  0  0  0  0  0  0  0
   -0.4804    3.0326    2.8570 O   0  0  0  0  0  0  0  0  0  0  0  0
   -0.7268    2.9943    0.6363 N   0  0  0  0  0  0  0  0  0  0  0  0
   -0.1804    1.6392    0.4667 C   0  0  0  0  0  0  0  0  0  0  0  0
    0.5384    1.6163   -0.9126 C   0  0  0  0  0  0  0  0  0  0  0  0
    0.7984    0.1812   -1.4188 C   0  0  0  0  0  0  0  0  0  0  0  0
   -0.4675   -0.5695   -1.3561 N   0  0  0  0  0  0  0  0  0  0  0  0
   -0.9671   -0.7654    0.0188 C   0  0  0  0  0  0  0  0  0  0  0  0
   -1.3555    0.6228    0.5721 C   0  0  0  0  0  0  0  0  0  0  0  0
   -1.4066   -0.4009   -2.3868 C   0  0  0  0  0  0  0  0  0  0  0  0
   -2.5197   -0.8942   -2.2465 O   0  0  0  0  0  0  0  0  0  0  0  0
   -1.0402    0.3192   -3.4918 O   0  0  0  0  0  0  0  0  0  0  0  0
   -2.1244    1.0678   -4.1147 C   0  0  0  0  0  0  0  0  0  0  0  0
   -2.4324    2.3039   -3.2742 C   0  0  0  0  0  0  0  0  0  0  0  0
   -1.6622    3.4762   -3.4349 C   0  0  0  0  0  0  0  0  0  0  0  0
   -1.8824    4.5880   -2.5968 C   0  0  0  0  0  0  0  0  0  0  0  0
   -2.8710    4.5324   -1.5951 C   0  0  0  0  0  0  0  0  0  0  0  0
   -3.6441    3.3665   -1.4351 C   0  0  0  0  0  0  0  0  0  0  0  0
   -3.4269    2.2548   -2.2728 C   0  0  0  0  0  0  0  0  0  0  0  0
   -2.3522    7.3426    3.8280 H   0  0  0  0  0  0  0  0  0  0  0  0
   -3.0271    6.9855    2.2219 H   0  0  0  0  0  0  0  0  0  0  0  0
   -1.2825    7.2629    2.4151 H   0  0  0  0  0  0  0  0  0  0  0  0
   -1.0896    5.2068    3.7941 H   0  0  0  0  0  0  0  0  0  0  0  0
   -3.0439    3.6457    3.9827 H   0  0  0  0  0  0  0  0  0  0  0  0
   -4.0711    4.8137    3.1229 H   0  0  0  0  0  0  0  0  0  0  0  0
   -3.4203    5.2073    4.7304 H   0  0  0  0  0  0  0  0  0  0  0  0
   -1.3030    3.3833   -0.1046 H   0  0  0  0  0  0  0  0  0  0  0  0
    0.5609    1.4178    1.2439 H   0  0  0  0  0  0  0  0  0  0  0  0
    1.4865    2.1559   -0.8389 H   0  0  0  0  0  0  0  0  0  0  0  0
   -0.0689    2.1451   -1.6483 H   0  0  0  0  0  0  0  0  0  0  0  0
    1.2045    0.1971   -2.4354 H   0  0  0  0  0  0  0  0  0  0  0  0
    1.5509   -0.3055   -0.7902 H   0  0  0  0  0  0  0  0  0  0  0  0
   -0.1878   -1.2146    0.6424 H   0  0  0  0  0  0  0  0  0  0  0  0
   -1.8236   -1.4473    0.0475 H   0  0  0  0  0  0  0  0  0  0  0  0
   -1.6617    0.5268    1.6177 H   0  0  0  0  0  0  0  0  0  0  0  0
   -2.2202    0.9993    0.0195 H   0  0  0  0  0  0  0  0  0  0  0  0
   -3.0217    0.4538   -4.2472 H   0  0  0  0  0  0  0  0  0  0  0  0
   -1.8140    1.3792   -5.1160 H   0  0  0  0  0  0  0  0  0  0  0  0
   -0.8819    3.5167   -4.1926 H   0  0  0  0  0  0  0  0  0  0  0  0
   -1.2840    5.4888   -2.7199 H   0  0  0  0  0  0  0  0  0  0  0  0
   -3.0379    5.3887   -0.9431 H   0  0  0  0  0  0  0  0  0  0  0  0
   -4.4068    3.3204   -0.6596 H   0  0  0  0  0  0  0  0  0  0  0  0
   -4.0144    1.3484   -2.1300 H   0  0  0  0  0  0  0  0  0  0  0  0
  1  2  1  0  0  0  0
  1 24  1  0  0  0  0
  1 25  1  0  0  0  0
  1 26  1  0  0  0  0
  2  3  1  0  0  0  0
  2  4  1  0  0  0  0
  2 27  1  0  0  0  0
  3 28  1  0  0  0  0
  3 29  1  0  0  0  0
  3 30  1  0  0  0  0
  4  5  1  0  0  0  0
  5  6  2  0  0  0  0
  5  7  1  0  0  0  0
  7  8  1  0  0  0  0
  7 31  1  0  0  0  0
  8  9  1  0  0  0  0
  8 13  1  0  0  0  0
  8 32  1  0  0  0  0
  9 10  1  0  0  0  0
  9 33  1  0  0  0  0
  9 34  1  0  0  0  0
 10 11  1  0  0  0  0
 10 35  1  0  0  0  0
 10 36  1  0  0  0  0
 11 12  1  0  0  0  0
 11 14  1  0  0  0  0
 12 13  1  0  0  0  0
 12 37  1  0  0  0  0
 12 38  1  0  0  0  0
 13 39  1  0  0  0  0
 13 40  1  0  0  0  0
 14 15  2  0  0  0  0
 14 16  1  0  0  0  0
 16 17  1  0  0  0  0
 17 18  1  0  0  0  0
 17 41  1  0  0  0  0
 17 42  1  0  0  0  0
 18 19  1  0  0  0  0
 18 23  2  0  0  0  0
 19 20  2  0  0  0  0
 19 43  1  0  0  0  0
 20 21  1  0  0  0  0
 20 44  1  0  0  0  0
 21 22  2  0  0  0  0
 21 45  1  0  0  0  0
 22 23  1  0  0  0  0
 22 46  1  0  0  0  0
 23 47  1  0  0  0  0
M  END
> <Energy FFXML>
-76.53367488958018

> <SMILES QCArchive>
[H]c1c(c(c(c(c1[H])[H])C([H])([H])OC(=O)N2C(C(C(C(C2([H])[H])([H])[H])([H])N([H])C(=O)OC([H])(C([H])([H])[H])C([H])([H])[H])([H])[H])([H])[H])[H])[H]

> <Energy QCArchive>
-673282.8070263562

> <Record QCArchive>
36954910

> <final_energy>
-76.53367488958018

$$$$
