BRI-00174-00
  -OEChem-11282313333D

 41 44  0     0  0  0  0  0  0999 V2000
    3.3536   -0.6308   -0.4406 C   0  0  0  0  0  0  0  0  0  0  0  0
    2.6472    0.6322   -0.7704 N   0  0  0  0  0  0  0  0  0  0  0  0
    2.5028    1.6283    0.2168 C   0  0  0  0  0  0  0  0  0  0  0  0
    3.5908    1.9003    1.0764 C   0  0  0  0  0  0  0  0  0  0  0  0
    3.4906    2.8875    2.0736 C   0  0  0  0  0  0  0  0  0  0  0  0
    2.3013    3.6230    2.2279 C   0  0  0  0  0  0  0  0  0  0  0  0
    1.2115    3.3618    1.3707 C   0  0  0  0  0  0  0  0  0  0  0  0
    1.2949    2.3705    0.3654 C   0  0  0  0  0  0  0  0  0  0  0  0
    0.1590    2.1412   -0.4498 N   0  0  0  0  0  0  0  0  0  0  0  0
   -1.1050    2.0005    0.1818 C   0  0  0  0  0  0  0  0  0  0  0  0
   -1.2170    1.2050    1.3467 C   0  0  0  0  0  0  0  0  0  0  0  0
   -2.4510    1.0787    2.0142 C   0  0  0  0  0  0  0  0  0  0  0  0
   -3.5865    1.7516    1.5269 C   0  0  0  0  0  0  0  0  0  0  0  0
   -3.4871    2.5523    0.3741 C   0  0  0  0  0  0  0  0  0  0  0  0
   -2.2526    2.6803   -0.2925 C   0  0  0  0  0  0  0  0  0  0  0  0
    0.3032    2.0721   -1.8531 C   0  0  0  0  0  0  0  0  0  0  0  0
   -0.6530    1.8921   -2.5957 O   0  0  0  0  0  0  0  0  0  0  0  0
    1.6522    2.1777   -2.5020 C   0  0  0  0  0  0  0  0  0  0  0  0
    2.3720    0.9260   -2.1102 C   0  0  0  0  0  0  0  0  0  0  0  0
    2.7825    0.1886   -2.9951 O   0  0  0  0  0  0  0  0  0  0  0  0
    2.2168    4.6830    3.3226 C   0  0  0  0  0  0  0  0  0  0  0  0
    1.3922    5.9678    3.0884 C   0  0  0  0  0  0  0  0  0  0  0  0
    0.8814    4.9102    4.0647 C   0  0  0  0  0  0  0  0  0  0  0  0
    3.2528   -0.8637    0.6236 H   0  0  0  0  0  0  0  0  0  0  0  0
    4.4158   -0.5551   -0.6910 H   0  0  0  0  0  0  0  0  0  0  0  0
    2.9176   -1.4705   -0.9912 H   0  0  0  0  0  0  0  0  0  0  0  0
    4.5268    1.3565    0.9724 H   0  0  0  0  0  0  0  0  0  0  0  0
    4.3406    3.0801    2.7250 H   0  0  0  0  0  0  0  0  0  0  0  0
    0.2862    3.9221    1.4786 H   0  0  0  0  0  0  0  0  0  0  0  0
   -0.3468    0.6772    1.7305 H   0  0  0  0  0  0  0  0  0  0  0  0
   -2.5266    0.4580    2.9048 H   0  0  0  0  0  0  0  0  0  0  0  0
   -4.5414    1.6514    2.0390 H   0  0  0  0  0  0  0  0  0  0  0  0
   -4.3642    3.0724   -0.0061 H   0  0  0  0  0  0  0  0  0  0  0  0
   -2.1962    3.3094   -1.1779 H   0  0  0  0  0  0  0  0  0  0  0  0
    1.5425    2.2222   -3.5869 H   0  0  0  0  0  0  0  0  0  0  0  0
    2.1868    3.0635   -2.1624 H   0  0  0  0  0  0  0  0  0  0  0  0
    3.1419    4.7708    3.9008 H   0  0  0  0  0  0  0  0  0  0  0  0
    1.7711    6.9105    3.4937 H   0  0  0  0  0  0  0  0  0  0  0  0
    0.8734    6.1073    2.1358 H   0  0  0  0  0  0  0  0  0  0  0  0
    0.9121    5.1322    5.1353 H   0  0  0  0  0  0  0  0  0  0  0  0
    0.0074    4.3114    3.7924 H   0  0  0  0  0  0  0  0  0  0  0  0
  1  2  1  0  0  0  0
  1 24  1  0  0  0  0
  1 25  1  0  0  0  0
  1 26  1  0  0  0  0
  2  3  1  0  0  0  0
  2 19  1  0  0  0  0
  3  4  1  0  0  0  0
  3  8  2  0  0  0  0
  4  5  2  0  0  0  0
  4 27  1  0  0  0  0
  5  6  1  0  0  0  0
  5 28  1  0  0  0  0
  6  7  2  0  0  0  0
  6 21  1  0  0  0  0
  7  8  1  0  0  0  0
  7 29  1  0  0  0  0
  8  9  1  0  0  0  0
  9 10  1  0  0  0  0
  9 16  1  0  0  0  0
 10 11  1  0  0  0  0
 10 15  2  0  0  0  0
 11 12  2  0  0  0  0
 11 30  1  0  0  0  0
 12 13  1  0  0  0  0
 12 31  1  0  0  0  0
 13 14  2  0  0  0  0
 13 32  1  0  0  0  0
 14 15  1  0  0  0  0
 14 33  1  0  0  0  0
 15 34  1  0  0  0  0
 16 17  2  0  0  0  0
 16 18  1  0  0  0  0
 18 19  1  0  0  0  0
 18 35  1  0  0  0  0
 18 36  1  0  0  0  0
 19 20  2  0  0  0  0
 21 22  1  0  0  0  0
 21 23  1  0  0  0  0
 21 37  1  0  0  0  0
 22 23  1  0  0  0  0
 22 38  1  0  0  0  0
 22 39  1  0  0  0  0
 23 40  1  0  0  0  0
 23 41  1  0  0  0  0
M  END
> <Energy FFXML>
-25.42410275889291

> <SMILES QCArchive>
[H]c1c(c(c(c(c1[H])[H])N2c3c(c(c(c(c3N(C(=O)C(C2=O)([H])[H])C([H])([H])[H])[H])[H])C4(C(C4([H])[H])([H])[H])[H])[H])[H])[H]

> <Energy QCArchive>
-624371.3383597546

> <Record QCArchive>
36954868

> <final_energy>
-25.42410275889291

$$$$
