BRI-00528-07
  -OEChem-11282313333D

 47 48  0     0  0  0  0  0  0999 V2000
   -0.0085    5.9651    5.2820 C   0  0  0  0  0  0  0  0  0  0  0  0
   -1.1327    4.9105    5.3345 C   0  0  0  0  0  0  0  0  0  0  0  0
   -2.3897    5.5156    5.9834 C   0  0  0  0  0  0  0  0  0  0  0  0
   -1.4817    4.4997    3.9826 O   0  0  0  0  0  0  0  0  0  0  0  0
   -0.7668    3.4554    3.4797 C   0  0  0  0  0  0  0  0  0  0  0  0
    0.1625    2.8858    4.0347 O   0  0  0  0  0  0  0  0  0  0  0  0
   -1.1239    3.0680    2.2116 N   0  0  0  0  0  0  0  0  0  0  0  0
   -0.3803    2.0699    1.4205 C   0  0  0  0  0  0  0  0  0  0  0  0
   -1.4083    1.1874    0.6623 C   0  0  0  0  0  0  0  0  0  0  0  0
   -0.8325    0.6645   -0.6694 C   0  0  0  0  0  0  0  0  0  0  0  0
   -0.4804    1.8146   -1.5401 N   0  0  0  0  0  0  0  0  0  0  0  0
   -0.0303    3.0844   -0.9099 C   0  0  0  0  0  0  0  0  0  0  0  0
    0.6066    2.7941    0.4653 C   0  0  0  0  0  0  0  0  0  0  0  0
   -0.6580    1.7354   -2.9266 C   0  0  0  0  0  0  0  0  0  0  0  0
   -0.4558    2.7468   -3.5886 O   0  0  0  0  0  0  0  0  0  0  0  0
   -0.9781    0.5145   -3.4606 O   0  0  0  0  0  0  0  0  0  0  0  0
   -1.3143    0.5169   -4.8769 C   0  0  0  0  0  0  0  0  0  0  0  0
   -2.7619    0.9400   -5.0761 C   0  0  0  0  0  0  0  0  0  0  0  0
   -3.0707    2.2590   -5.4724 C   0  0  0  0  0  0  0  0  0  0  0  0
   -4.4135    2.6492   -5.6412 C   0  0  0  0  0  0  0  0  0  0  0  0
   -5.4511    1.7253   -5.4091 C   0  0  0  0  0  0  0  0  0  0  0  0
   -5.1462    0.4118   -5.0015 C   0  0  0  0  0  0  0  0  0  0  0  0
   -3.8036    0.0202   -4.8310 C   0  0  0  0  0  0  0  0  0  0  0  0
    0.8967    5.5317    4.8477 H   0  0  0  0  0  0  0  0  0  0  0  0
   -0.3149    6.8202    4.6731 H   0  0  0  0  0  0  0  0  0  0  0  0
    0.2300    6.3169    6.2893 H   0  0  0  0  0  0  0  0  0  0  0  0
   -0.8110    4.0579    5.9444 H   0  0  0  0  0  0  0  0  0  0  0  0
   -2.1720    5.8411    7.0043 H   0  0  0  0  0  0  0  0  0  0  0  0
   -2.7410    6.3759    5.4067 H   0  0  0  0  0  0  0  0  0  0  0  0
   -3.1884    4.7698    6.0212 H   0  0  0  0  0  0  0  0  0  0  0  0
   -1.8079    3.6678    1.7660 H   0  0  0  0  0  0  0  0  0  0  0  0
    0.1991    1.4154    2.0824 H   0  0  0  0  0  0  0  0  0  0  0  0
   -1.7010    0.3445    1.2945 H   0  0  0  0  0  0  0  0  0  0  0  0
   -2.3154    1.7623    0.4521 H   0  0  0  0  0  0  0  0  0  0  0  0
   -1.5896    0.0318   -1.1436 H   0  0  0  0  0  0  0  0  0  0  0  0
    0.0523    0.0471   -0.4848 H   0  0  0  0  0  0  0  0  0  0  0  0
   -0.8780    3.7672   -0.7959 H   0  0  0  0  0  0  0  0  0  0  0  0
    0.7178    3.5793   -1.5384 H   0  0  0  0  0  0  0  0  0  0  0  0
    0.9534    3.7273    0.9188 H   0  0  0  0  0  0  0  0  0  0  0  0
    1.4917    2.1675    0.3214 H   0  0  0  0  0  0  0  0  0  0  0  0
   -1.1832   -0.4944   -5.2718 H   0  0  0  0  0  0  0  0  0  0  0  0
   -0.6384    1.1557   -5.4556 H   0  0  0  0  0  0  0  0  0  0  0  0
   -2.2721    2.9810   -5.6378 H   0  0  0  0  0  0  0  0  0  0  0  0
   -4.6466    3.6674   -5.9462 H   0  0  0  0  0  0  0  0  0  0  0  0
   -6.4881    2.0287   -5.5388 H   0  0  0  0  0  0  0  0  0  0  0  0
   -5.9480   -0.2996   -4.8147 H   0  0  0  0  0  0  0  0  0  0  0  0
   -3.5714   -0.9921   -4.5064 H   0  0  0  0  0  0  0  0  0  0  0  0
  1  2  1  0  0  0  0
  1 24  1  0  0  0  0
  1 25  1  0  0  0  0
  1 26  1  0  0  0  0
  2  3  1  0  0  0  0
  2  4  1  0  0  0  0
  2 27  1  0  0  0  0
  3 28  1  0  0  0  0
  3 29  1  0  0  0  0
  3 30  1  0  0  0  0
  4  5  1  0  0  0  0
  5  6  2  0  0  0  0
  5  7  1  0  0  0  0
  7  8  1  0  0  0  0
  7 31  1  0  0  0  0
  8  9  1  0  0  0  0
  8 13  1  0  0  0  0
  8 32  1  0  0  0  0
  9 10  1  0  0  0  0
  9 33  1  0  0  0  0
  9 34  1  0  0  0  0
 10 11  1  0  0  0  0
 10 35  1  0  0  0  0
 10 36  1  0  0  0  0
 11 12  1  0  0  0  0
 11 14  1  0  0  0  0
 12 13  1  0  0  0  0
 12 37  1  0  0  0  0
 12 38  1  0  0  0  0
 13 39  1  0  0  0  0
 13 40  1  0  0  0  0
 14 15  2  0  0  0  0
 14 16  1  0  0  0  0
 16 17  1  0  0  0  0
 17 18  1  0  0  0  0
 17 41  1  0  0  0  0
 17 42  1  0  0  0  0
 18 19  1  0  0  0  0
 18 23  2  0  0  0  0
 19 20  2  0  0  0  0
 19 43  1  0  0  0  0
 20 21  1  0  0  0  0
 20 44  1  0  0  0  0
 21 22  2  0  0  0  0
 21 45  1  0  0  0  0
 22 23  1  0  0  0  0
 22 46  1  0  0  0  0
 23 47  1  0  0  0  0
M  END
> <Energy FFXML>
-70.87838206720637

> <SMILES QCArchive>
[H]c1c(c(c(c(c1[H])[H])C([H])([H])OC(=O)N2C(C(C(C(C2([H])[H])([H])[H])([H])N([H])C(=O)OC([H])(C([H])([H])[H])C([H])([H])[H])([H])[H])([H])[H])[H])[H]

> <Energy QCArchive>
-673276.3442174814

> <Record QCArchive>
36954917

> <final_energy>
-70.87838206720637

$$$$
