BRI-00226-06
  -OEChem-11282313333D

 60 63  0     1  0  0  0  0  0999 V2000
   -1.4386    3.2485    7.3769 O   0  0  0  0  0  0  0  0  0  0  0  0
   -1.4717    1.9385    7.1388 C   0  0  0  0  0  0  0  0  0  0  0  0
   -2.5379    1.3583    7.2267 O   0  0  0  0  0  0  0  0  0  0  0  0
   -0.3080    1.2628    6.8045 N   0  0  0  0  0  0  0  0  0  0  0  0
    1.0097    1.8814    6.9658 C   0  0  0  0  0  0  0  0  0  0  0  0
    1.9329    0.6868    7.2439 C   0  0  0  0  0  0  0  0  0  0  0  0
    1.2281   -0.5317    6.6164 C   0  0  0  0  0  0  0  0  0  0  0  0
   -0.2798   -0.1975    6.6267 C   0  0  2  0  0  0  0  0  0  0  0  0
   -0.7494   -0.6791    7.4920 H   0  0  0  0  0  0  0  0  0  0  0  0
   -0.9459   -0.6639    5.3319 C   0  0  0  0  0  0  0  0  0  0  0  0
   -0.8705    0.1117    4.1540 C   0  0  0  0  0  0  0  0  0  0  0  0
   -1.4696   -0.3470    2.9665 C   0  0  0  0  0  0  0  0  0  0  0  0
   -2.1434   -1.5835    2.9442 C   0  0  0  0  0  0  0  0  0  0  0  0
   -2.2218   -2.3758    4.1169 C   0  0  0  0  0  0  0  0  0  0  0  0
   -1.6095   -1.9085    5.3052 C   0  0  0  0  0  0  0  0  0  0  0  0
   -2.9277   -3.6921    4.1062 C   0  0  0  0  0  0  0  0  0  0  0  0
   -2.6831   -4.5097    4.9835 O   0  0  0  0  0  0  0  0  0  0  0  0
   -3.8860   -3.9350    3.1229 N   0  0  0  0  0  0  0  0  0  0  0  0
   -4.6611   -5.0945    2.9564 C   0  0  0  0  0  0  0  0  0  0  0  0
   -5.9109   -4.9548    2.3207 C   0  0  0  0  0  0  0  0  0  0  0  0
   -6.7292   -6.0790    2.0935 C   0  0  0  0  0  0  0  0  0  0  0  0
   -6.2920   -7.3598    2.4852 C   0  0  0  0  0  0  0  0  0  0  0  0
   -7.1843   -8.5694    2.2686 C   0  0  0  0  0  0  0  0  0  0  0  0
   -8.0726   -8.8081    3.5070 C   0  0  0  0  0  0  0  0  0  0  0  0
   -9.0253   -9.9305    3.2628 N   0  0  0  0  0  0  0  0  0  0  0  0
   -8.4205  -11.2948    3.3942 C   0  0  0  0  0  0  0  0  0  0  0  0
   -9.4533  -12.3944    3.0378 C   0  0  0  0  0  0  0  0  0  0  0  0
  -10.6720  -12.2417    3.8171 O   0  0  0  0  0  0  0  0  0  0  0  0
  -11.2940  -10.9408    3.6259 C   0  0  0  0  0  0  0  0  0  0  0  0
  -10.3193   -9.7951    4.0000 C   0  0  0  0  0  0  0  0  0  0  0  0
   -5.0388   -7.5095    3.1116 C   0  0  0  0  0  0  0  0  0  0  0  0
   -4.2226   -6.3837    3.3374 C   0  0  0  0  0  0  0  0  0  0  0  0
   -2.3349    3.5357    7.5899 H   0  0  0  0  0  0  0  0  0  0  0  0
    1.3055    2.3956    6.0462 H   0  0  0  0  0  0  0  0  0  0  0  0
    1.0337    2.5788    7.8097 H   0  0  0  0  0  0  0  0  0  0  0  0
    2.9253    0.8424    6.8113 H   0  0  0  0  0  0  0  0  0  0  0  0
    2.0304    0.5404    8.3239 H   0  0  0  0  0  0  0  0  0  0  0  0
    1.5820   -0.6713    5.5903 H   0  0  0  0  0  0  0  0  0  0  0  0
    1.4309   -1.4437    7.1851 H   0  0  0  0  0  0  0  0  0  0  0  0
   -0.3516    1.0679    4.1599 H   0  0  0  0  0  0  0  0  0  0  0  0
   -1.4061    0.2573    2.0638 H   0  0  0  0  0  0  0  0  0  0  0  0
   -2.5771   -1.9175    2.0040 H   0  0  0  0  0  0  0  0  0  0  0  0
   -1.6600   -2.5111    6.2117 H   0  0  0  0  0  0  0  0  0  0  0  0
   -4.1811   -3.1087    2.6208 H   0  0  0  0  0  0  0  0  0  0  0  0
   -6.2624   -3.9743    2.0111 H   0  0  0  0  0  0  0  0  0  0  0  0
   -7.6996   -5.9560    1.6165 H   0  0  0  0  0  0  0  0  0  0  0  0
   -7.8180   -8.4141    1.3908 H   0  0  0  0  0  0  0  0  0  0  0  0
   -6.5690   -9.4505    2.0721 H   0  0  0  0  0  0  0  0  0  0  0  0
   -7.4474   -9.0250    4.3791 H   0  0  0  0  0  0  0  0  0  0  0  0
   -8.6268   -7.8901    3.7273 H   0  0  0  0  0  0  0  0  0  0  0  0
   -7.5538  -11.3938    2.7356 H   0  0  0  0  0  0  0  0  0  0  0  0
   -8.0724  -11.4480    4.4205 H   0  0  0  0  0  0  0  0  0  0  0  0
   -9.0180  -13.3790    3.2279 H   0  0  0  0  0  0  0  0  0  0  0  0
   -9.6882  -12.3393    1.9708 H   0  0  0  0  0  0  0  0  0  0  0  0
  -12.1935  -10.8706    4.2432 H   0  0  0  0  0  0  0  0  0  0  0  0
  -11.6020  -10.8289    2.5822 H   0  0  0  0  0  0  0  0  0  0  0  0
  -10.1347   -9.8159    5.0786 H   0  0  0  0  0  0  0  0  0  0  0  0
  -10.7870   -8.8346    3.7638 H   0  0  0  0  0  0  0  0  0  0  0  0
   -4.6931   -8.4932    3.4225 H   0  0  0  0  0  0  0  0  0  0  0  0
   -3.2528   -6.5373    3.8030 H   0  0  0  0  0  0  0  0  0  0  0  0
  1  2  1  0  0  0  0
  1 33  1  0  0  0  0
  2  3  2  0  0  0  0
  2  4  1  0  0  0  0
  4  5  1  0  0  0  0
  4  8  1  0  0  0  0
  5  6  1  0  0  0  0
  5 34  1  0  0  0  0
  5 35  1  0  0  0  0
  6  7  1  0  0  0  0
  6 36  1  0  0  0  0
  6 37  1  0  0  0  0
  7  8  1  0  0  0  0
  7 38  1  0  0  0  0
  7 39  1  0  0  0  0
  8  9  1  0  0  0  0
  8 10  1  0  0  0  0
 10 11  1  0  0  0  0
 10 15  2  0  0  0  0
 11 12  2  0  0  0  0
 11 40  1  0  0  0  0
 12 13  1  0  0  0  0
 12 41  1  0  0  0  0
 13 14  2  0  0  0  0
 13 42  1  0  0  0  0
 14 15  1  0  0  0  0
 14 16  1  0  0  0  0
 15 43  1  0  0  0  0
 16 17  2  0  0  0  0
 16 18  1  0  0  0  0
 18 19  1  0  0  0  0
 18 44  1  0  0  0  0
 19 20  1  0  0  0  0
 19 32  2  0  0  0  0
 20 21  2  0  0  0  0
 20 45  1  0  0  0  0
 21 22  1  0  0  0  0
 21 46  1  0  0  0  0
 22 23  1  0  0  0  0
 22 31  2  0  0  0  0
 23 24  1  0  0  0  0
 23 47  1  0  0  0  0
 23 48  1  0  0  0  0
 24 25  1  0  0  0  0
 24 49  1  0  0  0  0
 24 50  1  0  0  0  0
 25 26  1  0  0  0  0
 25 30  1  0  0  0  0
 26 27  1  0  0  0  0
 26 51  1  0  0  0  0
 26 52  1  0  0  0  0
 27 28  1  0  0  0  0
 27 53  1  0  0  0  0
 27 54  1  0  0  0  0
 28 29  1  0  0  0  0
 29 30  1  0  0  0  0
 29 55  1  0  0  0  0
 29 56  1  0  0  0  0
 30 57  1  0  0  0  0
 30 58  1  0  0  0  0
 31 32  1  0  0  0  0
 31 59  1  0  0  0  0
 32 60  1  0  0  0  0
M  END
> <Energy FFXML>
-26.049067850910333

> <SMILES QCArchive>
[H]c1c(c(c(c(c1[H])[C@]2(C(C(C(N2C(=O)O[H])([H])[H])([H])[H])([H])[H])[H])[H])C(=O)N([H])c3c(c(c(c(c3[H])[H])C([H])([H])C([H])([H])N4C(C(OC(C4([H])[H])([H])[H])([H])[H])([H])[H])[H])[H])[H]

> <Energy QCArchive>
-876932.615309812

> <Record QCArchive>
36954852

> <final_energy>
-26.049067850910333

$$$$
