BRI-00226-00
  -OEChem-11282313333D

 60 63  0     1  0  0  0  0  0999 V2000
   -2.3695    1.3414    6.9824 O   0  0  0  0  0  0  0  0  0  0  0  0
   -1.3062    1.9997    6.5251 C   0  0  0  0  0  0  0  0  0  0  0  0
   -1.3388    3.2165    6.4918 O   0  0  0  0  0  0  0  0  0  0  0  0
   -0.1795    1.3131    6.1005 N   0  0  0  0  0  0  0  0  0  0  0  0
    1.0895    1.9981    5.8380 C   0  0  0  0  0  0  0  0  0  0  0  0
    2.1407    0.9076    6.0882 C   0  0  0  0  0  0  0  0  0  0  0  0
    1.4055   -0.4304    5.8728 C   0  0  0  0  0  0  0  0  0  0  0  0
   -0.0810   -0.1494    6.1856 C   0  0  2  0  0  0  0  0  0  0  0  0
   -0.3009   -0.4706    7.2099 H   0  0  0  0  0  0  0  0  0  0  0  0
   -0.9924   -0.8698    5.1918 C   0  0  0  0  0  0  0  0  0  0  0  0
   -1.2001   -0.3546    3.8934 C   0  0  0  0  0  0  0  0  0  0  0  0
   -2.0226   -1.0434    2.9835 C   0  0  0  0  0  0  0  0  0  0  0  0
   -2.6411   -2.2511    3.3606 C   0  0  0  0  0  0  0  0  0  0  0  0
   -2.4410   -2.7821    4.6600 C   0  0  0  0  0  0  0  0  0  0  0  0
   -1.6041   -2.0846    5.5657 C   0  0  0  0  0  0  0  0  0  0  0  0
   -3.0881   -4.0648    5.0744 C   0  0  0  0  0  0  0  0  0  0  0  0
   -2.6731   -4.6496    6.0662 O   0  0  0  0  0  0  0  0  0  0  0  0
   -4.1853   -4.5332    4.3522 N   0  0  0  0  0  0  0  0  0  0  0  0
   -4.9337   -5.6979    4.5914 C   0  0  0  0  0  0  0  0  0  0  0  0
   -6.2638   -5.7192    4.1275 C   0  0  0  0  0  0  0  0  0  0  0  0
   -7.0658   -6.8637    4.3031 C   0  0  0  0  0  0  0  0  0  0  0  0
   -6.5398   -8.0055    4.9384 C   0  0  0  0  0  0  0  0  0  0  0  0
   -7.4034   -9.2463    5.1214 C   0  0  0  0  0  0  0  0  0  0  0  0
   -7.5588  -10.0346    3.7973 C   0  0  0  0  0  0  0  0  0  0  0  0
   -8.4955   -9.3600    2.8421 N   0  0  0  0  0  0  0  0  0  0  0  0
   -9.9435   -9.4063    3.2373 C   0  0  0  0  0  0  0  0  0  0  0  0
  -10.8622   -9.0847    2.0293 C   0  0  0  0  0  0  0  0  0  0  0  0
  -10.6840  -10.0243    0.9216 O   0  0  0  0  0  0  0  0  0  0  0  0
   -9.3356  -10.5826    0.8025 C   0  0  0  0  0  0  0  0  0  0  0  0
   -8.2403   -9.6524    1.3909 C   0  0  0  0  0  0  0  0  0  0  0  0
   -5.2015   -8.0011    5.3815 C   0  0  0  0  0  0  0  0  0  0  0  0
   -4.4010   -6.8551    5.2052 C   0  0  0  0  0  0  0  0  0  0  0  0
   -3.0455    1.9871    7.2188 H   0  0  0  0  0  0  0  0  0  0  0  0
    1.2480    2.8387    6.5221 H   0  0  0  0  0  0  0  0  0  0  0  0
    1.1285    2.3466    4.8014 H   0  0  0  0  0  0  0  0  0  0  0  0
    2.9905    1.0121    5.4076 H   0  0  0  0  0  0  0  0  0  0  0  0
    2.4975    0.9706    7.1207 H   0  0  0  0  0  0  0  0  0  0  0  0
    1.5247   -0.7502    4.8330 H   0  0  0  0  0  0  0  0  0  0  0  0
    1.8029   -1.2109    6.5278 H   0  0  0  0  0  0  0  0  0  0  0  0
   -0.7255    0.5773    3.5918 H   0  0  0  0  0  0  0  0  0  0  0  0
   -2.1744   -0.6398    1.9843 H   0  0  0  0  0  0  0  0  0  0  0  0
   -3.2528   -2.7662    2.6230 H   0  0  0  0  0  0  0  0  0  0  0  0
   -1.4366   -2.4856    6.5650 H   0  0  0  0  0  0  0  0  0  0  0  0
   -4.5840   -3.8582    3.7146 H   0  0  0  0  0  0  0  0  0  0  0  0
   -6.6897   -4.8507    3.6330 H   0  0  0  0  0  0  0  0  0  0  0  0
   -8.0910   -6.8742    3.9380 H   0  0  0  0  0  0  0  0  0  0  0  0
   -8.3829   -8.9642    5.5141 H   0  0  0  0  0  0  0  0  0  0  0  0
   -6.9462   -9.8994    5.8695 H   0  0  0  0  0  0  0  0  0  0  0  0
   -7.9274  -11.0411    4.0177 H   0  0  0  0  0  0  0  0  0  0  0  0
   -6.5700  -10.1540    3.3435 H   0  0  0  0  0  0  0  0  0  0  0  0
  -10.1984  -10.3966    3.6274 H   0  0  0  0  0  0  0  0  0  0  0  0
  -10.1337   -8.6809    4.0330 H   0  0  0  0  0  0  0  0  0  0  0  0
  -11.9064   -9.1025    2.3527 H   0  0  0  0  0  0  0  0  0  0  0  0
  -10.6515   -8.0696    1.6804 H   0  0  0  0  0  0  0  0  0  0  0  0
   -9.2989  -11.5463    1.3185 H   0  0  0  0  0  0  0  0  0  0  0  0
   -9.1182  -10.7759   -0.2513 H   0  0  0  0  0  0  0  0  0  0  0  0
   -7.2587  -10.1143    1.2512 H   0  0  0  0  0  0  0  0  0  0  0  0
   -8.2283   -8.7132    0.8299 H   0  0  0  0  0  0  0  0  0  0  0  0
   -4.7752   -8.8802    5.8599 H   0  0  0  0  0  0  0  0  0  0  0  0
   -3.3692   -6.8942    5.5433 H   0  0  0  0  0  0  0  0  0  0  0  0
  1  2  1  0  0  0  0
  1 33  1  0  0  0  0
  2  3  2  0  0  0  0
  2  4  1  0  0  0  0
  4  5  1  0  0  0  0
  4  8  1  0  0  0  0
  5  6  1  0  0  0  0
  5 34  1  0  0  0  0
  5 35  1  0  0  0  0
  6  7  1  0  0  0  0
  6 36  1  0  0  0  0
  6 37  1  0  0  0  0
  7  8  1  0  0  0  0
  7 38  1  0  0  0  0
  7 39  1  0  0  0  0
  8  9  1  0  0  0  0
  8 10  1  0  0  0  0
 10 11  1  0  0  0  0
 10 15  2  0  0  0  0
 11 12  2  0  0  0  0
 11 40  1  0  0  0  0
 12 13  1  0  0  0  0
 12 41  1  0  0  0  0
 13 14  2  0  0  0  0
 13 42  1  0  0  0  0
 14 15  1  0  0  0  0
 14 16  1  0  0  0  0
 15 43  1  0  0  0  0
 16 17  2  0  0  0  0
 16 18  1  0  0  0  0
 18 19  1  0  0  0  0
 18 44  1  0  0  0  0
 19 20  1  0  0  0  0
 19 32  2  0  0  0  0
 20 21  2  0  0  0  0
 20 45  1  0  0  0  0
 21 22  1  0  0  0  0
 21 46  1  0  0  0  0
 22 23  1  0  0  0  0
 22 31  2  0  0  0  0
 23 24  1  0  0  0  0
 23 47  1  0  0  0  0
 23 48  1  0  0  0  0
 24 25  1  0  0  0  0
 24 49  1  0  0  0  0
 24 50  1  0  0  0  0
 25 26  1  0  0  0  0
 25 30  1  0  0  0  0
 26 27  1  0  0  0  0
 26 51  1  0  0  0  0
 26 52  1  0  0  0  0
 27 28  1  0  0  0  0
 27 53  1  0  0  0  0
 27 54  1  0  0  0  0
 28 29  1  0  0  0  0
 29 30  1  0  0  0  0
 29 55  1  0  0  0  0
 29 56  1  0  0  0  0
 30 57  1  0  0  0  0
 30 58  1  0  0  0  0
 31 32  1  0  0  0  0
 31 59  1  0  0  0  0
 32 60  1  0  0  0  0
M  END
> <Energy FFXML>
-20.739709958347074

> <SMILES QCArchive>
[H]c1c(c(c(c(c1[H])[C@]2(C(C(C(N2C(=O)O[H])([H])[H])([H])[H])([H])[H])[H])[H])C(=O)N([H])c3c(c(c(c(c3[H])[H])C([H])([H])C([H])([H])N4C(C(OC(C4([H])[H])([H])[H])([H])[H])([H])[H])[H])[H])[H]

> <Energy QCArchive>
-876925.1741620546

> <Record QCArchive>
36954846

> <final_energy>
-20.739709958347074

$$$$
