BRI-00226-02
  -OEChem-11282313333D

 60 63  0     1  0  0  0  0  0999 V2000
    0.6422   -2.0343    4.0386 O   0  0  0  0  0  0  0  0  0  0  0  0
    0.2939   -2.5126    5.2315 C   0  0  0  0  0  0  0  0  0  0  0  0
    0.5454   -3.6734    5.4978 O   0  0  0  0  0  0  0  0  0  0  0  0
   -0.3581   -1.7071    6.1514 N   0  0  0  0  0  0  0  0  0  0  0  0
   -0.5365   -2.1134    7.5481 C   0  0  0  0  0  0  0  0  0  0  0  0
   -0.6927   -0.7775    8.2881 C   0  0  0  0  0  0  0  0  0  0  0  0
   -1.1960    0.2253    7.2299 C   0  0  0  0  0  0  0  0  0  0  0  0
   -0.6911   -0.3054    5.8691 C   0  0  2  0  0  0  0  0  0  0  0  0
    0.2176    0.2354    5.5827 H   0  0  0  0  0  0  0  0  0  0  0  0
   -1.7680   -0.1556    4.7935 C   0  0  0  0  0  0  0  0  0  0  0  0
   -1.7099    0.9292    3.8944 C   0  0  0  0  0  0  0  0  0  0  0  0
   -2.7107    1.0923    2.9186 C   0  0  0  0  0  0  0  0  0  0  0  0
   -3.7724    0.1715    2.8327 C   0  0  0  0  0  0  0  0  0  0  0  0
   -3.8432   -0.9265    3.7238 C   0  0  0  0  0  0  0  0  0  0  0  0
   -2.8401   -1.0734    4.7142 C   0  0  0  0  0  0  0  0  0  0  0  0
   -4.9644   -1.9092    3.6167 C   0  0  0  0  0  0  0  0  0  0  0  0
   -5.9289   -1.6365    2.9140 O   0  0  0  0  0  0  0  0  0  0  0  0
   -4.8496   -3.1372    4.2667 N   0  0  0  0  0  0  0  0  0  0  0  0
   -5.7657   -4.2021    4.2654 C   0  0  0  0  0  0  0  0  0  0  0  0
   -7.1565   -4.0387    4.0677 C   0  0  0  0  0  0  0  0  0  0  0  0
   -8.0180   -5.1531    4.1085 C   0  0  0  0  0  0  0  0  0  0  0  0
   -7.5009   -6.4388    4.3666 C   0  0  0  0  0  0  0  0  0  0  0  0
   -8.4276   -7.6467    4.3962 C   0  0  0  0  0  0  0  0  0  0  0  0
   -8.3243   -8.4693    3.0904 C   0  0  0  0  0  0  0  0  0  0  0  0
   -7.0732   -9.2842    3.0625 N   0  0  0  0  0  0  0  0  0  0  0  0
   -7.1087  -10.5554    3.8617 C   0  0  0  0  0  0  0  0  0  0  0  0
   -7.0186  -11.8056    2.9446 C   0  0  0  0  0  0  0  0  0  0  0  0
   -5.8189  -11.8119    2.1056 O   0  0  0  0  0  0  0  0  0  0  0  0
   -5.3228  -10.4846    1.7330 C   0  0  0  0  0  0  0  0  0  0  0  0
   -6.4398   -9.4091    1.7136 C   0  0  0  0  0  0  0  0  0  0  0  0
   -6.1180   -6.6036    4.5772 C   0  0  0  0  0  0  0  0  0  0  0  0
   -5.2583   -5.4888    4.5338 C   0  0  0  0  0  0  0  0  0  0  0  0
    1.0638   -2.7442    3.5396 H   0  0  0  0  0  0  0  0  0  0  0  0
    0.3356   -2.6565    7.9276 H   0  0  0  0  0  0  0  0  0  0  0  0
   -1.4366   -2.7263    7.6571 H   0  0  0  0  0  0  0  0  0  0  0  0
   -1.3950   -0.8661    9.1220 H   0  0  0  0  0  0  0  0  0  0  0  0
    0.2797   -0.4533    8.6711 H   0  0  0  0  0  0  0  0  0  0  0  0
   -2.2900    0.2568    7.2473 H   0  0  0  0  0  0  0  0  0  0  0  0
   -0.8134    1.2311    7.4247 H   0  0  0  0  0  0  0  0  0  0  0  0
   -0.8927    1.6456    3.9490 H   0  0  0  0  0  0  0  0  0  0  0  0
   -2.6642    1.9301    2.2257 H   0  0  0  0  0  0  0  0  0  0  0  0
   -4.5390    0.3066    2.0693 H   0  0  0  0  0  0  0  0  0  0  0  0
   -2.8785   -1.8871    5.4347 H   0  0  0  0  0  0  0  0  0  0  0  0
   -3.9242   -3.3309    4.6267 H   0  0  0  0  0  0  0  0  0  0  0  0
   -7.5948   -3.0610    3.8892 H   0  0  0  0  0  0  0  0  0  0  0  0
   -9.0834   -5.0096    3.9427 H   0  0  0  0  0  0  0  0  0  0  0  0
   -9.4602   -7.3117    4.5255 H   0  0  0  0  0  0  0  0  0  0  0  0
   -8.1894   -8.2773    5.2568 H   0  0  0  0  0  0  0  0  0  0  0  0
   -8.3559   -7.7884    2.2334 H   0  0  0  0  0  0  0  0  0  0  0  0
   -9.1938   -9.1281    3.0038 H   0  0  0  0  0  0  0  0  0  0  0  0
   -8.0227  -10.6110    4.4604 H   0  0  0  0  0  0  0  0  0  0  0  0
   -6.2686  -10.5641    4.5624 H   0  0  0  0  0  0  0  0  0  0  0  0
   -7.9050  -11.8432    2.3050 H   0  0  0  0  0  0  0  0  0  0  0  0
   -7.0312  -12.7084    3.5610 H   0  0  0  0  0  0  0  0  0  0  0  0
   -4.5469  -10.1784    2.4406 H   0  0  0  0  0  0  0  0  0  0  0  0
   -4.8541  -10.5385    0.7468 H   0  0  0  0  0  0  0  0  0  0  0  0
   -7.1918   -9.6807    0.9661 H   0  0  0  0  0  0  0  0  0  0  0  0
   -6.0133   -8.4458    1.4181 H   0  0  0  0  0  0  0  0  0  0  0  0
   -5.7159   -7.5983    4.7613 H   0  0  0  0  0  0  0  0  0  0  0  0
   -4.1943   -5.6385    4.6967 H   0  0  0  0  0  0  0  0  0  0  0  0
  1  2  1  0  0  0  0
  1 33  1  0  0  0  0
  2  3  2  0  0  0  0
  2  4  1  0  0  0  0
  4  5  1  0  0  0  0
  4  8  1  0  0  0  0
  5  6  1  0  0  0  0
  5 34  1  0  0  0  0
  5 35  1  0  0  0  0
  6  7  1  0  0  0  0
  6 36  1  0  0  0  0
  6 37  1  0  0  0  0
  7  8  1  0  0  0  0
  7 38  1  0  0  0  0
  7 39  1  0  0  0  0
  8  9  1  0  0  0  0
  8 10  1  0  0  0  0
 10 11  1  0  0  0  0
 10 15  2  0  0  0  0
 11 12  2  0  0  0  0
 11 40  1  0  0  0  0
 12 13  1  0  0  0  0
 12 41  1  0  0  0  0
 13 14  2  0  0  0  0
 13 42  1  0  0  0  0
 14 15  1  0  0  0  0
 14 16  1  0  0  0  0
 15 43  1  0  0  0  0
 16 17  2  0  0  0  0
 16 18  1  0  0  0  0
 18 19  1  0  0  0  0
 18 44  1  0  0  0  0
 19 20  1  0  0  0  0
 19 32  2  0  0  0  0
 20 21  2  0  0  0  0
 20 45  1  0  0  0  0
 21 22  1  0  0  0  0
 21 46  1  0  0  0  0
 22 23  1  0  0  0  0
 22 31  2  0  0  0  0
 23 24  1  0  0  0  0
 23 47  1  0  0  0  0
 23 48  1  0  0  0  0
 24 25  1  0  0  0  0
 24 49  1  0  0  0  0
 24 50  1  0  0  0  0
 25 26  1  0  0  0  0
 25 30  1  0  0  0  0
 26 27  1  0  0  0  0
 26 51  1  0  0  0  0
 26 52  1  0  0  0  0
 27 28  1  0  0  0  0
 27 53  1  0  0  0  0
 27 54  1  0  0  0  0
 28 29  1  0  0  0  0
 29 30  1  0  0  0  0
 29 55  1  0  0  0  0
 29 56  1  0  0  0  0
 30 57  1  0  0  0  0
 30 58  1  0  0  0  0
 31 32  1  0  0  0  0
 31 59  1  0  0  0  0
 32 60  1  0  0  0  0
M  END
> <Energy FFXML>
-23.381943471653496

> <SMILES QCArchive>
[H]c1c(c(c(c(c1[H])[C@]2(C(C(C(N2C(=O)O[H])([H])[H])([H])[H])([H])[H])[H])[H])C(=O)N([H])c3c(c(c(c(c3[H])[H])C([H])([H])C([H])([H])N4C(C(OC(C4([H])[H])([H])[H])([H])[H])([H])[H])[H])[H])[H]

> <Energy QCArchive>
-876925.7340978413

> <Record QCArchive>
36954848

> <final_energy>
-23.381943471653496

$$$$
