BRI-00505-04
  -OEChem-11282313333D

 34 36  0     0  0  0  0  0  0999 V2000
    3.7721    4.2913    1.0708 C   0  0  0  0  0  0  0  0  0  0  0  0
    2.5127    4.1467    0.3048 N   0  0  0  0  0  0  0  0  0  0  0  0
    1.6916    5.1928   -0.0654 C   0  0  0  0  0  0  0  0  0  0  0  0
    0.6596    4.7553   -0.7561 N   0  0  0  0  0  0  0  0  0  0  0  0
    0.8404    3.3654   -0.8367 C   0  0  0  0  0  0  0  0  0  0  0  0
   -0.1295    2.5197   -1.6278 C   0  0  0  0  0  0  0  0  0  0  0  0
    1.9771    2.9698   -0.1701 C   0  0  0  0  0  0  0  0  0  0  0  0
    2.5279    1.6020    0.0160 C   0  0  0  0  0  0  0  0  0  0  0  0
    1.8364    0.4417   -0.0379 C   0  0  0  0  0  0  0  0  0  0  0  0
    2.7626   -0.5278    0.2175 N   0  0  0  0  0  0  0  0  0  0  0  0
    4.0005    0.0322    0.4394 N   0  0  0  0  0  0  0  0  0  0  0  0
    3.8677    1.3290    0.3223 N   0  0  0  0  0  0  0  0  0  0  0  0
    2.5130   -1.9204    0.2581 C   0  0  0  0  0  0  0  0  0  0  0  0
    3.5682   -2.8159    0.5572 C   0  0  0  0  0  0  0  0  0  0  0  0
    3.3405   -4.2044    0.6021 C   0  0  0  0  0  0  0  0  0  0  0  0
    2.0561   -4.7187    0.3485 C   0  0  0  0  0  0  0  0  0  0  0  0
    0.9871   -3.8437    0.0466 C   0  0  0  0  0  0  0  0  0  0  0  0
    1.2221   -2.4484    0.0029 C   0  0  0  0  0  0  0  0  0  0  0  0
   -0.3757   -4.3812   -0.2242 C   0  0  0  0  0  0  0  0  0  0  0  0
   -1.3892   -3.5495   -0.5114 O   0  0  0  0  0  0  0  0  0  0  0  0
   -0.5961   -5.5806   -0.1900 O   0  0  0  0  0  0  0  0  0  0  0  0
    4.6304    4.0399    0.4411 H   0  0  0  0  0  0  0  0  0  0  0  0
    3.8920    5.3199    1.4216 H   0  0  0  0  0  0  0  0  0  0  0  0
    3.7611    3.6366    1.9470 H   0  0  0  0  0  0  0  0  0  0  0  0
    1.8694    6.2377    0.1806 H   0  0  0  0  0  0  0  0  0  0  0  0
   -1.0175    2.3065   -1.0278 H   0  0  0  0  0  0  0  0  0  0  0  0
    0.3305    1.5864   -1.9543 H   0  0  0  0  0  0  0  0  0  0  0  0
   -0.4403    3.0627   -2.5242 H   0  0  0  0  0  0  0  0  0  0  0  0
    0.7755    0.3282   -0.2165 H   0  0  0  0  0  0  0  0  0  0  0  0
    4.5713   -2.4426    0.7570 H   0  0  0  0  0  0  0  0  0  0  0  0
    4.1611   -4.8814    0.8335 H   0  0  0  0  0  0  0  0  0  0  0  0
    1.8908   -5.7956    0.3857 H   0  0  0  0  0  0  0  0  0  0  0  0
    0.3865   -1.7951   -0.2329 H   0  0  0  0  0  0  0  0  0  0  0  0
   -2.1900   -4.0731   -0.6562 H   0  0  0  0  0  0  0  0  0  0  0  0
  1  2  1  0  0  0  0
  1 22  1  0  0  0  0
  1 23  1  0  0  0  0
  1 24  1  0  0  0  0
  2  3  1  0  0  0  0
  2  7  1  0  0  0  0
  3  4  2  0  0  0  0
  3 25  1  0  0  0  0
  4  5  1  0  0  0  0
  5  6  1  0  0  0  0
  5  7  2  0  0  0  0
  6 26  1  0  0  0  0
  6 27  1  0  0  0  0
  6 28  1  0  0  0  0
  7  8  1  0  0  0  0
  8  9  2  0  0  0  0
  8 12  1  0  0  0  0
  9 10  1  0  0  0  0
  9 29  1  0  0  0  0
 10 11  1  0  0  0  0
 10 13  1  0  0  0  0
 11 12  2  0  0  0  0
 13 14  1  0  0  0  0
 13 18  2  0  0  0  0
 14 15  2  0  0  0  0
 14 30  1  0  0  0  0
 15 16  1  0  0  0  0
 15 31  1  0  0  0  0
 16 17  2  0  0  0  0
 16 32  1  0  0  0  0
 17 18  1  0  0  0  0
 17 19  1  0  0  0  0
 18 33  1  0  0  0  0
 19 20  1  0  0  0  0
 19 21  2  0  0  0  0
 20 34  1  0  0  0  0
M  END
> <Energy FFXML>
-12.900808293003175

> <SMILES QCArchive>
[H]c1c(c(c(c(c1[H])N2C(=C(N=N2)C3=C(N=C(N3C([H])([H])[H])[H])C([H])([H])[H])[H])[H])C(=O)O[H])[H]

> <Energy QCArchive>
-605979.296885647

> <Record QCArchive>
36954934

> <final_energy>
-12.900808293003175

$$$$
