BRI-01068-02
  -OEChem-11282313333D

 42 43  0     1  0  0  0  0  0999 V2000
    2.1949   -2.4320   -5.3679 C   0  0  0  0  0  0  0  0  0  0  0  0
    2.5907   -0.9549   -5.6178 C   0  0  1  0  0  0  0  0  0  0  0  0
    3.5906   -0.8893   -6.8255 C   0  0  0  0  0  0  0  0  0  0  0  0
    4.1078    0.5310   -7.1079 C   0  0  0  0  0  0  0  0  0  0  0  0
    4.6573    0.7990   -8.3013 O   0  0  0  0  0  0  0  0  0  0  0  0
    4.1431    1.3688   -6.2206 O   0  0  0  0  0  0  0  0  0  0  0  0
    1.3069   -0.0952   -5.8675 C   0  0  0  0  0  0  0  0  0  0  0  0
    0.9437    0.0954   -7.0240 O   0  0  0  0  0  0  0  0  0  0  0  0
    0.4469    0.3954   -4.7381 C   0  0  0  0  0  0  0  0  0  0  0  0
    0.7695    0.1175   -3.3852 C   0  0  0  0  0  0  0  0  0  0  0  0
   -0.0538    0.5868   -2.3428 C   0  0  0  0  0  0  0  0  0  0  0  0
   -1.2050    1.3414   -2.6347 C   0  0  0  0  0  0  0  0  0  0  0  0
   -2.0503    1.8341   -1.6413 N   0  0  0  0  0  0  0  0  0  0  0  0
   -2.2091    1.1855   -0.3152 C   0  0  0  0  0  0  0  0  0  0  0  0
   -1.0897    1.5526    0.6532 C   0  0  0  0  0  0  0  0  0  0  0  0
   -0.6367    0.6004    1.5931 C   0  0  0  0  0  0  0  0  0  0  0  0
    0.3823    0.9359    2.5063 C   0  0  0  0  0  0  0  0  0  0  0  0
    0.9481    2.2254    2.4897 C   0  0  0  0  0  0  0  0  0  0  0  0
    0.4927    3.1816    1.5619 C   0  0  0  0  0  0  0  0  0  0  0  0
   -0.5269    2.8490    0.6489 C   0  0  0  0  0  0  0  0  0  0  0  0
   -1.5339    1.6282   -3.9777 C   0  0  0  0  0  0  0  0  0  0  0  0
   -2.6553    2.3544   -4.2739 O   0  0  0  0  0  0  0  0  0  0  0  0
   -0.7149    1.1582   -5.0208 C   0  0  0  0  0  0  0  0  0  0  0  0
    1.5228   -2.5122   -4.5089 H   0  0  0  0  0  0  0  0  0  0  0  0
    1.6842   -2.8439   -6.2439 H   0  0  0  0  0  0  0  0  0  0  0  0
    3.0834   -3.0370   -5.1656 H   0  0  0  0  0  0  0  0  0  0  0  0
    3.1079   -0.5698   -4.7357 H   0  0  0  0  0  0  0  0  0  0  0  0
    4.4495   -1.5354   -6.6312 H   0  0  0  0  0  0  0  0  0  0  0  0
    3.1024   -1.2669   -7.7283 H   0  0  0  0  0  0  0  0  0  0  0  0
    4.9493    1.7203   -8.3201 H   0  0  0  0  0  0  0  0  0  0  0  0
    1.6498   -0.4564   -3.1066 H   0  0  0  0  0  0  0  0  0  0  0  0
    0.2237    0.3708   -1.3163 H   0  0  0  0  0  0  0  0  0  0  0  0
   -2.8680    2.2765   -2.0631 H   0  0  0  0  0  0  0  0  0  0  0  0
   -3.1618    1.4992    0.1218 H   0  0  0  0  0  0  0  0  0  0  0  0
   -2.2680    0.0993   -0.4387 H   0  0  0  0  0  0  0  0  0  0  0  0
   -1.0685   -0.3981    1.6170 H   0  0  0  0  0  0  0  0  0  0  0  0
    0.7328    0.1988    3.2260 H   0  0  0  0  0  0  0  0  0  0  0  0
    1.7365    2.4842    3.1938 H   0  0  0  0  0  0  0  0  0  0  0  0
    0.9285    4.1785    1.5465 H   0  0  0  0  0  0  0  0  0  0  0  0
   -0.8711    3.5914   -0.0690 H   0  0  0  0  0  0  0  0  0  0  0  0
   -2.7410    2.5072   -5.2285 H   0  0  0  0  0  0  0  0  0  0  0  0
   -0.9769    1.3830   -6.0529 H   0  0  0  0  0  0  0  0  0  0  0  0
  1  2  1  0  0  0  0
  1 24  1  0  0  0  0
  1 25  1  0  0  0  0
  1 26  1  0  0  0  0
  2  3  1  0  0  0  0
  2  7  1  0  0  0  0
  2 27  1  0  0  0  0
  3  4  1  0  0  0  0
  3 28  1  0  0  0  0
  3 29  1  0  0  0  0
  4  5  1  0  0  0  0
  4  6  2  0  0  0  0
  5 30  1  0  0  0  0
  7  8  2  0  0  0  0
  7  9  1  0  0  0  0
  9 10  1  0  0  0  0
  9 23  2  0  0  0  0
 10 11  2  0  0  0  0
 10 31  1  0  0  0  0
 11 12  1  0  0  0  0
 11 32  1  0  0  0  0
 12 13  1  0  0  0  0
 12 21  2  0  0  0  0
 13 14  1  0  0  0  0
 13 33  1  0  0  0  0
 14 15  1  0  0  0  0
 14 34  1  0  0  0  0
 14 35  1  0  0  0  0
 15 16  1  0  0  0  0
 15 20  2  0  0  0  0
 16 17  2  0  0  0  0
 16 36  1  0  0  0  0
 17 18  1  0  0  0  0
 17 37  1  0  0  0  0
 18 19  2  0  0  0  0
 18 38  1  0  0  0  0
 19 20  1  0  0  0  0
 19 39  1  0  0  0  0
 20 40  1  0  0  0  0
 21 22  1  0  0  0  0
 21 23  1  0  0  0  0
 22 41  1  0  0  0  0
 23 42  1  0  0  0  0
M  END
> <Energy FFXML>
-12.55124647865094

> <SMILES QCArchive>
[H]c1c(c(c(c(c1[H])[H])C([H])([H])N([H])c2c(c(c(c(c2O[H])[H])C(=O)[C@@]([H])(C([H])([H])[H])C([H])([H])C(=O)O[H])[H])[H])[H])[H]

> <Energy QCArchive>
-660915.6303669012

> <Record QCArchive>
36954840

> <final_energy>
-12.55124647865094

$$$$
