BRI-00538-03
  -OEChem-11282313333D

 40 41  0     1  0  0  0  0  0999 V2000
   -3.6043    6.2505   -2.8157 C   0  0  0  0  0  0  0  0  0  0  0  0
   -2.2654    6.0677   -2.1978 N   0  0  1  0  0  0  0  0  0  0  0  0
   -1.5006    7.3381   -1.9987 C   0  0  0  0  0  0  0  0  0  0  0  0
   -0.1988    7.3034   -2.8229 C   0  0  0  0  0  0  0  0  0  0  0  0
    0.6662    8.5023   -2.4832 C   0  0  0  0  0  0  0  0  0  0  0  0
    0.5781    9.6863   -3.2469 C   0  0  0  0  0  0  0  0  0  0  0  0
    1.3659   10.8067   -2.9074 C   0  0  0  0  0  0  0  0  0  0  0  0
    2.2328   10.7439   -1.7986 C   0  0  0  0  0  0  0  0  0  0  0  0
    2.9969   11.8216   -1.4604 O   0  0  0  0  0  0  0  0  0  0  0  0
    2.3100    9.5633   -1.0317 C   0  0  0  0  0  0  0  0  0  0  0  0
    3.1403    9.5112    0.0399 O   0  0  0  0  0  0  0  0  0  0  0  0
    1.5321    8.4453   -1.3707 C   0  0  0  0  0  0  0  0  0  0  0  0
   -2.2539    5.1409   -1.0241 C   0  0  0  0  0  0  0  0  0  0  0  0
   -0.8483    4.6244   -0.7548 C   0  0  0  0  0  0  0  0  0  0  0  0
   -0.2623    3.6991   -1.6395 C   0  0  0  0  0  0  0  0  0  0  0  0
    1.0491    3.2362   -1.4184 C   0  0  0  0  0  0  0  0  0  0  0  0
    1.8002    3.6977   -0.3056 C   0  0  0  0  0  0  0  0  0  0  0  0
    1.2028    4.6389    0.5735 C   0  0  0  0  0  0  0  0  0  0  0  0
   -0.1103    5.0970    0.3494 C   0  0  0  0  0  0  0  0  0  0  0  0
    3.1239    3.2339   -0.0814 N   0  3  0  0  0  0  0  0  0  0  0  0
    3.6233    2.4091   -0.8659 O   0  5  0  0  0  0  0  0  0  0  0  0
    3.7532    3.6380    0.9113 O   0  0  0  0  0  0  0  0  0  0  0  0
   -4.0439    5.2818   -3.0710 H   0  0  0  0  0  0  0  0  0  0  0  0
   -4.2774    6.7704   -2.1273 H   0  0  0  0  0  0  0  0  0  0  0  0
   -3.5227    6.8369   -3.7359 H   0  0  0  0  0  0  0  0  0  0  0  0
   -2.0991    8.2021   -2.3046 H   0  0  0  0  0  0  0  0  0  0  0  0
   -1.2628    7.4803   -0.9397 H   0  0  0  0  0  0  0  0  0  0  0  0
    0.3532    6.3846   -2.6098 H   0  0  0  0  0  0  0  0  0  0  0  0
   -0.4382    7.2955   -3.8896 H   0  0  0  0  0  0  0  0  0  0  0  0
   -0.0966    9.7346   -4.0993 H   0  0  0  0  0  0  0  0  0  0  0  0
    1.2937   11.7107   -3.5056 H   0  0  0  0  0  0  0  0  0  0  0  0
    2.8676   12.5607   -2.0732 H   0  0  0  0  0  0  0  0  0  0  0  0
    3.6235   10.3491    0.1358 H   0  0  0  0  0  0  0  0  0  0  0  0
    1.6092    7.5432   -0.7679 H   0  0  0  0  0  0  0  0  0  0  0  0
   -2.9126    4.2879   -1.2156 H   0  0  0  0  0  0  0  0  0  0  0  0
   -2.6461    5.6512   -0.1387 H   0  0  0  0  0  0  0  0  0  0  0  0
   -0.8244    3.3572   -2.5060 H   0  0  0  0  0  0  0  0  0  0  0  0
    1.4744    2.5233   -2.1232 H   0  0  0  0  0  0  0  0  0  0  0  0
    1.7505    5.0272    1.4313 H   0  0  0  0  0  0  0  0  0  0  0  0
   -0.5455    5.8272    1.0280 H   0  0  0  0  0  0  0  0  0  0  0  0
  1  2  1  0  0  0  0
  1 23  1  0  0  0  0
  1 24  1  0  0  0  0
  1 25  1  0  0  0  0
  2  3  1  0  0  0  0
  2 13  1  0  0  0  0
  3  4  1  0  0  0  0
  3 26  1  0  0  0  0
  3 27  1  0  0  0  0
  4  5  1  0  0  0  0
  4 28  1  0  0  0  0
  4 29  1  0  0  0  0
  5  6  1  0  0  0  0
  5 12  2  0  0  0  0
  6  7  2  0  0  0  0
  6 30  1  0  0  0  0
  7  8  1  0  0  0  0
  7 31  1  0  0  0  0
  8  9  1  0  0  0  0
  8 10  2  0  0  0  0
  9 32  1  0  0  0  0
 10 11  1  0  0  0  0
 10 12  1  0  0  0  0
 11 33  1  0  0  0  0
 12 34  1  0  0  0  0
 13 14  1  0  0  0  0
 13 35  1  0  0  0  0
 13 36  1  0  0  0  0
 14 15  1  0  0  0  0
 14 19  2  0  0  0  0
 15 16  2  0  0  0  0
 15 37  1  0  0  0  0
 16 17  1  0  0  0  0
 16 38  1  0  0  0  0
 17 18  2  0  0  0  0
 17 20  1  0  0  0  0
 18 19  1  0  0  0  0
 18 39  1  0  0  0  0
 19 40  1  0  0  0  0
 20 21  1  0  0  0  0
 20 22  2  0  0  0  0
M  CHG  2  20   1  21  -1
M  END
> <Energy FFXML>
16.450880862585034

> <SMILES QCArchive>
[H]c1c(c(c(c(c1C([H])([H])N(C([H])([H])[H])C([H])([H])C([H])([H])c2c(c(c(c(c2[H])O[H])O[H])[H])[H])[H])[H])[N+](=O)[O-])[H]

> <Energy QCArchive>
-646982.3576369284

> <Record QCArchive>
36954880

> <final_energy>
16.450880862585034

$$$$
