BRI-00538-04
  -OEChem-11282313333D

 40 41  0     1  0  0  0  0  0999 V2000
   -1.7346    5.8450   -2.0751 C   0  0  0  0  0  0  0  0  0  0  0  0
   -0.4993    6.3023   -1.3724 N   0  0  1  0  0  0  0  0  0  0  0  0
   -0.2309    7.7659   -1.4988 C   0  0  0  0  0  0  0  0  0  0  0  0
    0.5238    8.0557   -2.8116 C   0  0  0  0  0  0  0  0  0  0  0  0
    0.8108    9.5410   -2.9370 C   0  0  0  0  0  0  0  0  0  0  0  0
   -0.0856   10.3815   -3.6327 C   0  0  0  0  0  0  0  0  0  0  0  0
    0.1711   11.7655   -3.7287 C   0  0  0  0  0  0  0  0  0  0  0  0
    1.3204   12.3086   -3.1219 C   0  0  0  0  0  0  0  0  0  0  0  0
    1.5782   13.6449   -3.2074 O   0  0  0  0  0  0  0  0  0  0  0  0
    2.2083   11.4685   -2.4194 C   0  0  0  0  0  0  0  0  0  0  0  0
    3.3104   11.9984   -1.8319 O   0  0  0  0  0  0  0  0  0  0  0  0
    1.9567   10.0906   -2.3239 C   0  0  0  0  0  0  0  0  0  0  0  0
   -0.3502    5.7680    0.0173 C   0  0  0  0  0  0  0  0  0  0  0  0
   -0.1977    4.2529    0.0154 C   0  0  0  0  0  0  0  0  0  0  0  0
    0.7963    3.6482   -0.7784 C   0  0  0  0  0  0  0  0  0  0  0  0
    0.9517    2.2487   -0.7813 C   0  0  0  0  0  0  0  0  0  0  0  0
    0.1132    1.4276    0.0177 C   0  0  0  0  0  0  0  0  0  0  0  0
   -0.8825    2.0485    0.8171 C   0  0  0  0  0  0  0  0  0  0  0  0
   -1.0345    3.4492    0.8155 C   0  0  0  0  0  0  0  0  0  0  0  0
    0.2666    0.0154    0.0166 N   0  3  0  0  0  0  0  0  0  0  0  0
    1.1453   -0.5034   -0.6929 O   0  5  0  0  0  0  0  0  0  0  0  0
   -0.4823   -0.6809    0.7233 O   0  0  0  0  0  0  0  0  0  0  0  0
   -2.6275    6.1768   -1.5368 H   0  0  0  0  0  0  0  0  0  0  0  0
   -1.7749    6.2465   -3.0913 H   0  0  0  0  0  0  0  0  0  0  0  0
   -1.7584    4.7540   -2.1493 H   0  0  0  0  0  0  0  0  0  0  0  0
   -1.1711    8.3265   -1.4774 H   0  0  0  0  0  0  0  0  0  0  0  0
    0.3733    8.1192   -0.6571 H   0  0  0  0  0  0  0  0  0  0  0  0
    1.4621    7.4938   -2.8239 H   0  0  0  0  0  0  0  0  0  0  0  0
   -0.0664    7.7169   -3.6666 H   0  0  0  0  0  0  0  0  0  0  0  0
   -0.9757    9.9619   -4.0974 H   0  0  0  0  0  0  0  0  0  0  0  0
   -0.5239   12.4010   -4.2705 H   0  0  0  0  0  0  0  0  0  0  0  0
    0.9016   14.1097   -3.7222 H   0  0  0  0  0  0  0  0  0  0  0  0
    3.3504   12.9570   -1.9882 H   0  0  0  0  0  0  0  0  0  0  0  0
    2.6551    9.4636   -1.7746 H   0  0  0  0  0  0  0  0  0  0  0  0
   -1.2147    6.0609    0.6213 H   0  0  0  0  0  0  0  0  0  0  0  0
    0.5345    6.2026    0.4931 H   0  0  0  0  0  0  0  0  0  0  0  0
    1.4354    4.2737   -1.3990 H   0  0  0  0  0  0  0  0  0  0  0  0
    1.7268    1.8142   -1.4109 H   0  0  0  0  0  0  0  0  0  0  0  0
   -1.5447    1.4534    1.4443 H   0  0  0  0  0  0  0  0  0  0  0  0
   -1.8035    3.9048    1.4353 H   0  0  0  0  0  0  0  0  0  0  0  0
  1  2  1  0  0  0  0
  1 23  1  0  0  0  0
  1 24  1  0  0  0  0
  1 25  1  0  0  0  0
  2  3  1  0  0  0  0
  2 13  1  0  0  0  0
  3  4  1  0  0  0  0
  3 26  1  0  0  0  0
  3 27  1  0  0  0  0
  4  5  1  0  0  0  0
  4 28  1  0  0  0  0
  4 29  1  0  0  0  0
  5  6  1  0  0  0  0
  5 12  2  0  0  0  0
  6  7  2  0  0  0  0
  6 30  1  0  0  0  0
  7  8  1  0  0  0  0
  7 31  1  0  0  0  0
  8  9  1  0  0  0  0
  8 10  2  0  0  0  0
  9 32  1  0  0  0  0
 10 11  1  0  0  0  0
 10 12  1  0  0  0  0
 11 33  1  0  0  0  0
 12 34  1  0  0  0  0
 13 14  1  0  0  0  0
 13 35  1  0  0  0  0
 13 36  1  0  0  0  0
 14 15  1  0  0  0  0
 14 19  2  0  0  0  0
 15 16  2  0  0  0  0
 15 37  1  0  0  0  0
 16 17  1  0  0  0  0
 16 38  1  0  0  0  0
 17 18  2  0  0  0  0
 17 20  1  0  0  0  0
 18 19  1  0  0  0  0
 18 39  1  0  0  0  0
 19 40  1  0  0  0  0
 20 21  1  0  0  0  0
 20 22  2  0  0  0  0
M  CHG  2  20   1  21  -1
M  END
> <Energy FFXML>
17.145796582853023

> <SMILES QCArchive>
[H]c1c(c(c(c(c1C([H])([H])N(C([H])([H])[H])C([H])([H])C([H])([H])c2c(c(c(c(c2[H])O[H])O[H])[H])[H])[H])[H])[N+](=O)[O-])[H]

> <Energy QCArchive>
-646982.0908573489

> <Record QCArchive>
36954881

> <final_energy>
17.145796582853023

$$$$
