BRI-01356-02
  -OEChem-11282313333D

 43 44  0     0  0  0  0  0  0999 V2000
   -1.6124    5.2898    1.6108 N   0  0  0  0  0  0  0  0  0  0  0  0
   -1.5775    4.4652    0.5293 C   0  0  0  0  0  0  0  0  0  0  0  0
   -2.6342    4.3199   -0.0606 O   0  0  0  0  0  0  0  0  0  0  0  0
   -0.3339    3.7607    0.1097 C   0  0  0  0  0  0  0  0  0  0  0  0
   -0.3823    2.8029   -0.9292 C   0  0  0  0  0  0  0  0  0  0  0  0
    0.7855    2.1275   -1.3355 C   0  0  0  0  0  0  0  0  0  0  0  0
    2.0226    2.3961   -0.7071 C   0  0  0  0  0  0  0  0  0  0  0  0
    3.2381    1.7863   -1.0548 N   0  0  0  0  0  0  0  0  0  0  0  0
    3.4776    0.6888   -1.8760 C   0  0  0  0  0  0  0  0  0  0  0  0
    2.5926    0.0485   -2.4263 O   0  0  0  0  0  0  0  0  0  0  0  0
    4.9547    0.2312   -2.0411 C   0  0  0  0  0  0  0  0  0  0  0  0
    5.9377    1.2199   -1.4422 N   0  0  0  0  0  0  0  0  0  0  0  0
    6.2713    2.3811   -2.3167 C   0  0  0  0  0  0  0  0  0  0  0  0
    6.8508    3.5386   -1.4672 C   0  0  0  0  0  0  0  0  0  0  0  0
    7.5082    3.0315   -0.1567 C   0  0  0  0  0  0  0  0  0  0  0  0
    8.1781    1.6618   -0.3872 C   0  0  0  0  0  0  0  0  0  0  0  0
    7.1114    0.6002   -0.7531 C   0  0  0  0  0  0  0  0  0  0  0  0
    8.5148    4.0019    0.3090 N   0  0  0  0  0  0  0  0  0  0  0  0
    8.2207    5.0121    1.1855 C   0  0  0  0  0  0  0  0  0  0  0  0
    9.1734    5.9069    1.4303 O   0  0  0  0  0  0  0  0  0  0  0  0
    7.1207    5.1086    1.6988 O   0  0  0  0  0  0  0  0  0  0  0  0
    2.0721    3.3613    0.3163 C   0  0  0  0  0  0  0  0  0  0  0  0
    0.9079    4.0393    0.7275 C   0  0  0  0  0  0  0  0  0  0  0  0
   -2.5419    5.5953    1.8799 H   0  0  0  0  0  0  0  0  0  0  0  0
   -0.8389    5.2937    2.2625 H   0  0  0  0  0  0  0  0  0  0  0  0
   -1.3274    2.5813   -1.4250 H   0  0  0  0  0  0  0  0  0  0  0  0
    0.6866    1.4123   -2.1460 H   0  0  0  0  0  0  0  0  0  0  0  0
    4.0969    2.1327   -0.6334 H   0  0  0  0  0  0  0  0  0  0  0  0
    5.0655   -0.7413   -1.5530 H   0  0  0  0  0  0  0  0  0  0  0  0
    5.1701    0.0924   -3.1046 H   0  0  0  0  0  0  0  0  0  0  0  0
    5.3822    2.7312   -2.8508 H   0  0  0  0  0  0  0  0  0  0  0  0
    7.0040    2.0746   -3.0705 H   0  0  0  0  0  0  0  0  0  0  0  0
    7.5778    4.0933   -2.0668 H   0  0  0  0  0  0  0  0  0  0  0  0
    6.0475    4.2346   -1.2096 H   0  0  0  0  0  0  0  0  0  0  0  0
    6.7310    2.8974    0.6056 H   0  0  0  0  0  0  0  0  0  0  0  0
    8.7150    1.3477    0.5123 H   0  0  0  0  0  0  0  0  0  0  0  0
    8.9075    1.7431   -1.1980 H   0  0  0  0  0  0  0  0  0  0  0  0
    6.7688    0.1036    0.1601 H   0  0  0  0  0  0  0  0  0  0  0  0
    7.5644   -0.1654   -1.3911 H   0  0  0  0  0  0  0  0  0  0  0  0
    9.4063    4.0880   -0.1668 H   0  0  0  0  0  0  0  0  0  0  0  0
    8.8358    6.5615    2.0550 H   0  0  0  0  0  0  0  0  0  0  0  0
    3.0187    3.5897    0.8006 H   0  0  0  0  0  0  0  0  0  0  0  0
    0.9924    4.7814    1.5180 H   0  0  0  0  0  0  0  0  0  0  0  0
  1  2  1  0  0  0  0
  1 24  1  0  0  0  0
  1 25  1  0  0  0  0
  2  3  2  0  0  0  0
  2  4  1  0  0  0  0
  4  5  1  0  0  0  0
  4 23  2  0  0  0  0
  5  6  2  0  0  0  0
  5 26  1  0  0  0  0
  6  7  1  0  0  0  0
  6 27  1  0  0  0  0
  7  8  1  0  0  0  0
  7 22  2  0  0  0  0
  8  9  1  0  0  0  0
  8 28  1  0  0  0  0
  9 10  2  0  0  0  0
  9 11  1  0  0  0  0
 11 12  1  0  0  0  0
 11 29  1  0  0  0  0
 11 30  1  0  0  0  0
 12 13  1  0  0  0  0
 12 17  1  0  0  0  0
 13 14  1  0  0  0  0
 13 31  1  0  0  0  0
 13 32  1  0  0  0  0
 14 15  1  0  0  0  0
 14 33  1  0  0  0  0
 14 34  1  0  0  0  0
 15 16  1  0  0  0  0
 15 18  1  0  0  0  0
 15 35  1  0  0  0  0
 16 17  1  0  0  0  0
 16 36  1  0  0  0  0
 16 37  1  0  0  0  0
 17 38  1  0  0  0  0
 17 39  1  0  0  0  0
 18 19  1  0  0  0  0
 18 40  1  0  0  0  0
 19 20  1  0  0  0  0
 19 21  2  0  0  0  0
 20 41  1  0  0  0  0
 22 23  1  0  0  0  0
 22 42  1  0  0  0  0
 23 43  1  0  0  0  0
M  END
> <Energy FFXML>
-101.41829019081275

> <SMILES QCArchive>
[H]c1c(c(c(c(c1C(=O)N([H])[H])[H])[H])N([H])C(=O)C([H])([H])N2C(C(C(C(C2([H])[H])([H])[H])([H])N([H])C(=O)O[H])([H])[H])([H])[H])[H]

> <Energy QCArchive>
-692654.2710813126

> <Record QCArchive>
36954830

> <final_energy>
-101.41829019081275

$$$$
