BRI-00174-03
  -OEChem-11282313333D

 41 44  0     0  0  0  0  0  0999 V2000
    3.2188    2.0690   -2.5059 C   0  0  0  0  0  0  0  0  0  0  0  0
    2.5326    1.4466   -1.3463 N   0  0  0  0  0  0  0  0  0  0  0  0
    2.3433    2.1929   -0.1652 C   0  0  0  0  0  0  0  0  0  0  0  0
    3.3886    3.0304    0.2884 C   0  0  0  0  0  0  0  0  0  0  0  0
    3.2435    3.7870    1.4656 C   0  0  0  0  0  0  0  0  0  0  0  0
    2.0562    3.7049    2.2120 C   0  0  0  0  0  0  0  0  0  0  0  0
    1.0015    2.8897    1.7635 C   0  0  0  0  0  0  0  0  0  0  0  0
    1.1302    2.1227    0.5821 C   0  0  0  0  0  0  0  0  0  0  0  0
    0.0348    1.3217    0.1757 N   0  0  0  0  0  0  0  0  0  0  0  0
   -1.2580    1.9082    0.1570 C   0  0  0  0  0  0  0  0  0  0  0  0
   -1.4266    3.2059   -0.3813 C   0  0  0  0  0  0  0  0  0  0  0  0
   -2.6922    3.8244   -0.3813 C   0  0  0  0  0  0  0  0  0  0  0  0
   -3.8030    3.1537    0.1628 C   0  0  0  0  0  0  0  0  0  0  0  0
   -3.6475    1.8661    0.7086 C   0  0  0  0  0  0  0  0  0  0  0  0
   -2.3815    1.2482    0.7103 C   0  0  0  0  0  0  0  0  0  0  0  0
    0.2468   -0.0270   -0.1864 C   0  0  0  0  0  0  0  0  0  0  0  0
   -0.6724   -0.7599   -0.5270 O   0  0  0  0  0  0  0  0  0  0  0  0
    1.6261   -0.6180   -0.2089 C   0  0  0  0  0  0  0  0  0  0  0  0
    2.3234    0.0634   -1.3439 C   0  0  0  0  0  0  0  0  0  0  0  0
    2.7750   -0.6252   -2.2479 O   0  0  0  0  0  0  0  0  0  0  0  0
    1.8884    4.5483    3.4572 C   0  0  0  0  0  0  0  0  0  0  0  0
    1.3537    3.9274    4.7534 C   0  0  0  0  0  0  0  0  0  0  0  0
    2.8299    4.3681    4.6527 C   0  0  0  0  0  0  0  0  0  0  0  0
    3.0649    3.1522   -2.5106 H   0  0  0  0  0  0  0  0  0  0  0  0
    2.8086    1.6870   -3.4462 H   0  0  0  0  0  0  0  0  0  0  0  0
    4.2923    1.8604   -2.4760 H   0  0  0  0  0  0  0  0  0  0  0  0
    4.3247    3.0945   -0.2613 H   0  0  0  0  0  0  0  0  0  0  0  0
    4.0520    4.4322    1.8036 H   0  0  0  0  0  0  0  0  0  0  0  0
    0.0768    2.8529    2.3358 H   0  0  0  0  0  0  0  0  0  0  0  0
   -0.5759    3.7322   -0.8083 H   0  0  0  0  0  0  0  0  0  0  0  0
   -2.8113    4.8196   -0.8049 H   0  0  0  0  0  0  0  0  0  0  0  0
   -4.7821    3.6286    0.1596 H   0  0  0  0  0  0  0  0  0  0  0  0
   -4.5053    1.3444    1.1284 H   0  0  0  0  0  0  0  0  0  0  0  0
   -2.2819    0.2551    1.1425 H   0  0  0  0  0  0  0  0  0  0  0  0
    1.5694   -1.6918   -0.3951 H   0  0  0  0  0  0  0  0  0  0  0  0
    2.1454   -0.4477    0.7329 H   0  0  0  0  0  0  0  0  0  0  0  0
    1.5567    5.5603    3.2049 H   0  0  0  0  0  0  0  0  0  0  0  0
    0.6714    4.5160    5.3735 H   0  0  0  0  0  0  0  0  0  0  0  0
    1.1261    2.8575    4.7741 H   0  0  0  0  0  0  0  0  0  0  0  0
    3.1497    5.2551    5.2071 H   0  0  0  0  0  0  0  0  0  0  0  0
    3.6062    3.5988    4.6010 H   0  0  0  0  0  0  0  0  0  0  0  0
  1  2  1  0  0  0  0
  1 24  1  0  0  0  0
  1 25  1  0  0  0  0
  1 26  1  0  0  0  0
  2  3  1  0  0  0  0
  2 19  1  0  0  0  0
  3  4  1  0  0  0  0
  3  8  2  0  0  0  0
  4  5  2  0  0  0  0
  4 27  1  0  0  0  0
  5  6  1  0  0  0  0
  5 28  1  0  0  0  0
  6  7  2  0  0  0  0
  6 21  1  0  0  0  0
  7  8  1  0  0  0  0
  7 29  1  0  0  0  0
  8  9  1  0  0  0  0
  9 10  1  0  0  0  0
  9 16  1  0  0  0  0
 10 11  1  0  0  0  0
 10 15  2  0  0  0  0
 11 12  2  0  0  0  0
 11 30  1  0  0  0  0
 12 13  1  0  0  0  0
 12 31  1  0  0  0  0
 13 14  2  0  0  0  0
 13 32  1  0  0  0  0
 14 15  1  0  0  0  0
 14 33  1  0  0  0  0
 15 34  1  0  0  0  0
 16 17  2  0  0  0  0
 16 18  1  0  0  0  0
 18 19  1  0  0  0  0
 18 35  1  0  0  0  0
 18 36  1  0  0  0  0
 19 20  2  0  0  0  0
 21 22  1  0  0  0  0
 21 23  1  0  0  0  0
 21 37  1  0  0  0  0
 22 23  1  0  0  0  0
 22 38  1  0  0  0  0
 22 39  1  0  0  0  0
 23 40  1  0  0  0  0
 23 41  1  0  0  0  0
M  END
> <Energy FFXML>
-23.505248179312733

> <SMILES QCArchive>
[H]c1c(c(c(c(c1[H])[H])N2c3c(c(c(c(c3N(C(=O)C(C2=O)([H])[H])C([H])([H])[H])[H])[H])C4(C(C4([H])[H])([H])[H])[H])[H])[H])[H]

> <Energy QCArchive>
-624370.2627636016

> <Record QCArchive>
36954871

> <final_energy>
-23.505248179312733

$$$$
