BRI-01068-00
  -OEChem-11282313333D

 42 43  0     1  0  0  0  0  0999 V2000
    0.9305    0.9968   -7.4740 C   0  0  0  0  0  0  0  0  0  0  0  0
    1.8574   -0.0261   -6.7707 C   0  0  1  0  0  0  0  0  0  0  0  0
    3.1407   -0.2450   -7.6471 C   0  0  0  0  0  0  0  0  0  0  0  0
    4.0858   -1.3147   -7.0758 C   0  0  0  0  0  0  0  0  0  0  0  0
    5.3629   -1.3409   -7.4837 O   0  0  0  0  0  0  0  0  0  0  0  0
    3.6532   -2.2134   -6.3715 O   0  0  0  0  0  0  0  0  0  0  0  0
    2.2053    0.4771   -5.3292 C   0  0  0  0  0  0  0  0  0  0  0  0
    3.2502    1.0979   -5.1630 O   0  0  0  0  0  0  0  0  0  0  0  0
    1.2438    0.3303   -4.1838 C   0  0  0  0  0  0  0  0  0  0  0  0
    1.5711    0.8849   -2.9210 C   0  0  0  0  0  0  0  0  0  0  0  0
    0.6882    0.7630   -1.8309 C   0  0  0  0  0  0  0  0  0  0  0  0
   -0.5331    0.0831   -1.9849 C   0  0  0  0  0  0  0  0  0  0  0  0
   -1.4428   -0.0683   -0.9386 N   0  0  0  0  0  0  0  0  0  0  0  0
   -1.0406   -0.0667    0.4909 C   0  0  0  0  0  0  0  0  0  0  0  0
   -0.8686    1.3438    1.0433 C   0  0  0  0  0  0  0  0  0  0  0  0
    0.1566    1.6113    1.9774 C   0  0  0  0  0  0  0  0  0  0  0  0
    0.3095    2.9069    2.5091 C   0  0  0  0  0  0  0  0  0  0  0  0
   -0.5648    3.9386    2.1162 C   0  0  0  0  0  0  0  0  0  0  0  0
   -1.5947    3.6746    1.1930 C   0  0  0  0  0  0  0  0  0  0  0  0
   -1.7500    2.3799    0.6606 C   0  0  0  0  0  0  0  0  0  0  0  0
   -0.8726   -0.4752   -3.2376 C   0  0  0  0  0  0  0  0  0  0  0  0
   -2.0543   -1.1501   -3.3905 O   0  0  0  0  0  0  0  0  0  0  0  0
    0.0077   -0.3530   -4.3305 C   0  0  0  0  0  0  0  0  0  0  0  0
    0.0109    1.1429   -6.9003 H   0  0  0  0  0  0  0  0  0  0  0  0
    1.4331    1.9643   -7.5700 H   0  0  0  0  0  0  0  0  0  0  0  0
    0.6596    0.6440   -8.4733 H   0  0  0  0  0  0  0  0  0  0  0  0
    1.3394   -0.9847   -6.6965 H   0  0  0  0  0  0  0  0  0  0  0  0
    2.8540   -0.5436   -8.6578 H   0  0  0  0  0  0  0  0  0  0  0  0
    3.6920    0.6955   -7.7345 H   0  0  0  0  0  0  0  0  0  0  0  0
    5.8230   -2.0731   -7.0516 H   0  0  0  0  0  0  0  0  0  0  0  0
    2.5108    1.4179   -2.7776 H   0  0  0  0  0  0  0  0  0  0  0  0
    0.9641    1.2115   -0.8823 H   0  0  0  0  0  0  0  0  0  0  0  0
   -2.2152   -0.6717   -1.2219 H   0  0  0  0  0  0  0  0  0  0  0  0
   -0.1193   -0.6444    0.6182 H   0  0  0  0  0  0  0  0  0  0  0  0
   -1.8096   -0.5778    1.0776 H   0  0  0  0  0  0  0  0  0  0  0  0
    0.8374    0.8217    2.2893 H   0  0  0  0  0  0  0  0  0  0  0  0
    1.1043    3.1115    3.2236 H   0  0  0  0  0  0  0  0  0  0  0  0
   -0.4447    4.9399    2.5251 H   0  0  0  0  0  0  0  0  0  0  0  0
   -2.2703    4.4706    0.8867 H   0  0  0  0  0  0  0  0  0  0  0  0
   -2.5439    2.1825   -0.0573 H   0  0  0  0  0  0  0  0  0  0  0  0
   -2.1644   -1.4877   -4.2927 H   0  0  0  0  0  0  0  0  0  0  0  0
   -0.2878   -0.7956   -5.2762 H   0  0  0  0  0  0  0  0  0  0  0  0
  1  2  1  0  0  0  0
  1 24  1  0  0  0  0
  1 25  1  0  0  0  0
  1 26  1  0  0  0  0
  2  3  1  0  0  0  0
  2  7  1  0  0  0  0
  2 27  1  0  0  0  0
  3  4  1  0  0  0  0
  3 28  1  0  0  0  0
  3 29  1  0  0  0  0
  4  5  1  0  0  0  0
  4  6  2  0  0  0  0
  5 30  1  0  0  0  0
  7  8  2  0  0  0  0
  7  9  1  0  0  0  0
  9 10  1  0  0  0  0
  9 23  2  0  0  0  0
 10 11  2  0  0  0  0
 10 31  1  0  0  0  0
 11 12  1  0  0  0  0
 11 32  1  0  0  0  0
 12 13  1  0  0  0  0
 12 21  2  0  0  0  0
 13 14  1  0  0  0  0
 13 33  1  0  0  0  0
 14 15  1  0  0  0  0
 14 34  1  0  0  0  0
 14 35  1  0  0  0  0
 15 16  1  0  0  0  0
 15 20  2  0  0  0  0
 16 17  2  0  0  0  0
 16 36  1  0  0  0  0
 17 18  1  0  0  0  0
 17 37  1  0  0  0  0
 18 19  2  0  0  0  0
 18 38  1  0  0  0  0
 19 20  1  0  0  0  0
 19 39  1  0  0  0  0
 20 40  1  0  0  0  0
 21 22  1  0  0  0  0
 21 23  1  0  0  0  0
 22 41  1  0  0  0  0
 23 42  1  0  0  0  0
M  END
> <Energy FFXML>
-11.52037494292585

> <SMILES QCArchive>
[H]c1c(c(c(c(c1[H])[H])C([H])([H])N([H])c2c(c(c(c(c2O[H])[H])C(=O)[C@@]([H])(C([H])([H])[H])C([H])([H])C(=O)O[H])[H])[H])[H])[H]

> <Energy QCArchive>
-660914.4050245471

> <Record QCArchive>
36954838

> <final_energy>
-11.52037494292585

$$$$
