BRI-00538-07
  -OEChem-11282313333D

 40 41  0     1  0  0  0  0  0999 V2000
   -0.3620    7.1588    1.3722 C   0  0  0  0  0  0  0  0  0  0  0  0
   -0.8551    7.4792    0.0035 N   0  0  2  0  0  0  0  0  0  0  0  0
   -1.4789    8.8343   -0.1163 C   0  0  0  0  0  0  0  0  0  0  0  0
   -1.5717    9.3510   -1.5809 C   0  0  0  0  0  0  0  0  0  0  0  0
   -0.3106    9.0988   -2.4049 C   0  0  0  0  0  0  0  0  0  0  0  0
   -0.4259    8.5817   -3.7153 C   0  0  0  0  0  0  0  0  0  0  0  0
    0.7287    8.3350   -4.4847 C   0  0  0  0  0  0  0  0  0  0  0  0
    1.9964    8.6087   -3.9487 C   0  0  0  0  0  0  0  0  0  0  0  0
    3.1104    8.3604   -4.6815 O   0  0  0  0  0  0  0  0  0  0  0  0
    2.1206    9.1373   -2.6484 C   0  0  0  0  0  0  0  0  0  0  0  0
    3.3584    9.3909   -2.1367 O   0  0  0  0  0  0  0  0  0  0  0  0
    0.9693    9.3912   -1.8790 C   0  0  0  0  0  0  0  0  0  0  0  0
   -1.6109    6.3638   -0.6522 C   0  0  0  0  0  0  0  0  0  0  0  0
   -0.6853    5.1985   -0.9745 C   0  0  0  0  0  0  0  0  0  0  0  0
    0.4556    5.4082   -1.7733 C   0  0  0  0  0  0  0  0  0  0  0  0
    1.3147    4.3382   -2.0854 C   0  0  0  0  0  0  0  0  0  0  0  0
    1.0452    3.0317   -1.5998 C   0  0  0  0  0  0  0  0  0  0  0  0
   -0.1087    2.8306   -0.7971 C   0  0  0  0  0  0  0  0  0  0  0  0
   -0.9661    3.9056   -0.4889 C   0  0  0  0  0  0  0  0  0  0  0  0
    1.9113    1.9496   -1.9099 N   0  3  0  0  0  0  0  0  0  0  0  0
    2.9202    2.1540   -2.6063 O   0  5  0  0  0  0  0  0  0  0  0  0
    1.6532    0.8158   -1.4706 O   0  0  0  0  0  0  0  0  0  0  0  0
   -1.2012    7.0252    2.0613 H   0  0  0  0  0  0  0  0  0  0  0  0
    0.2737    7.9652    1.7491 H   0  0  0  0  0  0  0  0  0  0  0  0
    0.2342    6.2417    1.3663 H   0  0  0  0  0  0  0  0  0  0  0  0
   -0.8950    9.5525    0.4674 H   0  0  0  0  0  0  0  0  0  0  0  0
   -2.4802    8.8206    0.3255 H   0  0  0  0  0  0  0  0  0  0  0  0
   -1.7810   10.4240   -1.5672 H   0  0  0  0  0  0  0  0  0  0  0  0
   -2.4288    8.8809   -2.0697 H   0  0  0  0  0  0  0  0  0  0  0  0
   -1.4032    8.3610   -4.1393 H   0  0  0  0  0  0  0  0  0  0  0  0
    0.6534    7.9299   -5.4913 H   0  0  0  0  0  0  0  0  0  0  0  0
    3.9072    8.6048   -4.1807 H   0  0  0  0  0  0  0  0  0  0  0  0
    3.3098    9.7039   -1.2210 H   0  0  0  0  0  0  0  0  0  0  0  0
    1.0622    9.7896   -0.8737 H   0  0  0  0  0  0  0  0  0  0  0  0
   -2.4238    6.0323    0.0013 H   0  0  0  0  0  0  0  0  0  0  0  0
   -2.0719    6.7024   -1.5831 H   0  0  0  0  0  0  0  0  0  0  0  0
    0.6772    6.4069   -2.1432 H   0  0  0  0  0  0  0  0  0  0  0  0
    2.1868    4.5422   -2.7056 H   0  0  0  0  0  0  0  0  0  0  0  0
   -0.3501    1.8430   -0.4068 H   0  0  0  0  0  0  0  0  0  0  0  0
   -1.8444    3.7297    0.1277 H   0  0  0  0  0  0  0  0  0  0  0  0
  1  2  1  0  0  0  0
  1 23  1  0  0  0  0
  1 24  1  0  0  0  0
  1 25  1  0  0  0  0
  2  3  1  0  0  0  0
  2 13  1  0  0  0  0
  3  4  1  0  0  0  0
  3 26  1  0  0  0  0
  3 27  1  0  0  0  0
  4  5  1  0  0  0  0
  4 28  1  0  0  0  0
  4 29  1  0  0  0  0
  5  6  1  0  0  0  0
  5 12  2  0  0  0  0
  6  7  2  0  0  0  0
  6 30  1  0  0  0  0
  7  8  1  0  0  0  0
  7 31  1  0  0  0  0
  8  9  1  0  0  0  0
  8 10  2  0  0  0  0
  9 32  1  0  0  0  0
 10 11  1  0  0  0  0
 10 12  1  0  0  0  0
 11 33  1  0  0  0  0
 12 34  1  0  0  0  0
 13 14  1  0  0  0  0
 13 35  1  0  0  0  0
 13 36  1  0  0  0  0
 14 15  1  0  0  0  0
 14 19  2  0  0  0  0
 15 16  2  0  0  0  0
 15 37  1  0  0  0  0
 16 17  1  0  0  0  0
 16 38  1  0  0  0  0
 17 18  2  0  0  0  0
 17 20  1  0  0  0  0
 18 19  1  0  0  0  0
 18 39  1  0  0  0  0
 19 40  1  0  0  0  0
 20 21  1  0  0  0  0
 20 22  2  0  0  0  0
M  CHG  2  20   1  21  -1
M  END
> <Energy FFXML>
17.289410575472935

> <SMILES QCArchive>
[H]c1c(c(c(c(c1C([H])([H])N(C([H])([H])[H])C([H])([H])C([H])([H])c2c(c(c(c(c2[H])O[H])O[H])[H])[H])[H])[H])[N+](=O)[O-])[H]

> <Energy QCArchive>
-646983.5563914721

> <Record QCArchive>
36954884

> <final_energy>
17.289410575472935

$$$$
