BRI-00386-01
  -OEChem-11282313333D

 40 42  0     1  0  0  0  0  0999 V2000
   -0.1878   -0.7954   -2.5829 C   0  0  0  0  0  0  0  0  0  0  0  0
    0.9069   -0.2516   -3.3635 O   0  0  0  0  0  0  0  0  0  0  0  0
    2.1541   -0.7710   -3.0160 C   0  0  0  0  0  0  0  0  0  0  0  0
    2.7831   -1.7619   -3.8054 C   0  0  0  0  0  0  0  0  0  0  0  0
    3.9865   -2.2670   -3.4110 N   0  0  0  0  0  0  0  0  0  0  0  0
    4.5674   -1.8428   -2.2736 C   0  0  0  0  0  0  0  0  0  0  0  0
    4.0059   -0.9084   -1.5005 N   0  0  0  0  0  0  0  0  0  0  0  0
    2.8450   -0.3490   -1.8548 C   0  0  0  0  0  0  0  0  0  0  0  0
    2.3560    0.6368   -0.9914 N   0  0  3  0  0  0  0  0  0  0  0  0
    2.5338    0.4682    0.4884 C   0  0  0  0  0  0  0  0  0  0  0  0
    1.8286    1.5888    1.3093 C   0  0  0  0  0  0  0  0  0  0  0  0
    0.5460    2.0546    0.6343 C   0  0  0  0  0  0  0  0  0  0  0  0
   -0.6189    2.3310    1.3745 C   0  0  0  0  0  0  0  0  0  0  0  0
   -1.7826    2.7765    0.7127 C   0  0  0  0  0  0  0  0  0  0  0  0
   -1.7858    2.9554   -0.6990 C   0  0  0  0  0  0  0  0  0  0  0  0
   -2.8793    3.3862   -1.4533 O   0  0  0  0  0  0  0  0  0  0  0  0
   -4.1360    3.6615   -0.7688 C   0  0  0  0  0  0  0  0  0  0  0  0
   -4.6190    2.5463   -0.1515 F   0  0  0  0  0  0  0  0  0  0  0  0
   -5.0428    4.0476   -1.7038 F   0  0  0  0  0  0  0  0  0  0  0  0
   -3.9990    4.6794    0.1273 F   0  0  0  0  0  0  0  0  0  0  0  0
   -0.6074    2.6868   -1.4219 C   0  0  0  0  0  0  0  0  0  0  0  0
    0.5537    2.2410   -0.7594 C   0  0  0  0  0  0  0  0  0  0  0  0
    1.8313    1.9345   -1.5143 C   0  0  0  0  0  0  0  0  0  0  0  0
    2.1867   -2.3304   -5.0747 C   0  0  0  0  0  0  0  0  0  0  0  0
    2.9393   -3.2438   -5.7378 O   0  0  0  0  0  0  0  0  0  0  0  0
    1.0691   -2.0335   -5.4762 O   0  0  0  0  0  0  0  0  0  0  0  0
   -1.1296   -0.3397   -2.9001 H   0  0  0  0  0  0  0  0  0  0  0  0
   -0.0518   -0.5917   -1.5171 H   0  0  0  0  0  0  0  0  0  0  0  0
   -0.2639   -1.8766   -2.7312 H   0  0  0  0  0  0  0  0  0  0  0  0
    5.5217   -2.2723   -1.9730 H   0  0  0  0  0  0  0  0  0  0  0  0
    2.1131   -0.4977    0.7861 H   0  0  0  0  0  0  0  0  0  0  0  0
    3.5985    0.4569    0.7441 H   0  0  0  0  0  0  0  0  0  0  0  0
    1.6215    1.2253    2.3194 H   0  0  0  0  0  0  0  0  0  0  0  0
    2.5059    2.4422    1.4031 H   0  0  0  0  0  0  0  0  0  0  0  0
   -0.6280    2.2013    2.4548 H   0  0  0  0  0  0  0  0  0  0  0  0
   -2.6545    2.9705    1.3303 H   0  0  0  0  0  0  0  0  0  0  0  0
   -0.6111    2.8208   -2.5015 H   0  0  0  0  0  0  0  0  0  0  0  0
    1.6440    1.9067   -2.5902 H   0  0  0  0  0  0  0  0  0  0  0  0
    2.5644    2.7288   -1.3433 H   0  0  0  0  0  0  0  0  0  0  0  0
    3.7738   -3.3781   -5.2589 H   0  0  0  0  0  0  0  0  0  0  0  0
  1  2  1  0  0  0  0
  1 27  1  0  0  0  0
  1 28  1  0  0  0  0
  1 29  1  0  0  0  0
  2  3  1  0  0  0  0
  3  4  1  0  0  0  0
  3  8  2  0  0  0  0
  4  5  2  0  0  0  0
  4 24  1  0  0  0  0
  5  6  1  0  0  0  0
  6  7  2  0  0  0  0
  6 30  1  0  0  0  0
  7  8  1  0  0  0  0
  8  9  1  0  0  0  0
  9 10  1  0  0  0  0
  9 23  1  0  0  0  0
 10 11  1  0  0  0  0
 10 31  1  0  0  0  0
 10 32  1  0  0  0  0
 11 12  1  0  0  0  0
 11 33  1  0  0  0  0
 11 34  1  0  0  0  0
 12 13  1  0  0  0  0
 12 22  2  0  0  0  0
 13 14  2  0  0  0  0
 13 35  1  0  0  0  0
 14 15  1  0  0  0  0
 14 36  1  0  0  0  0
 15 16  1  0  0  0  0
 15 21  2  0  0  0  0
 16 17  1  0  0  0  0
 17 18  1  0  0  0  0
 17 19  1  0  0  0  0
 17 20  1  0  0  0  0
 21 22  1  0  0  0  0
 21 37  1  0  0  0  0
 22 23  1  0  0  0  0
 23 38  1  0  0  0  0
 23 39  1  0  0  0  0
 24 25  1  0  0  0  0
 24 26  2  0  0  0  0
 25 40  1  0  0  0  0
M  END
> <Energy FFXML>
-26.496748589920575

> <SMILES QCArchive>
[H]c1c(c(c(c2c1C(C(N(C2([H])[H])c3c(c(nc(n3)[H])C(=O)O[H])OC([H])([H])[H])([H])[H])([H])[H])[H])OC(F)(F)F)[H]

> <Energy QCArchive>
-867909.583157532

> <Record QCArchive>
36954895

> <final_energy>
-26.496748589920575

$$$$
