BRI-00174-01
  -OEChem-11282313333D

 41 44  0     0  0  0  0  0  0999 V2000
    3.2560   -0.5215   -0.2691 C   0  0  0  0  0  0  0  0  0  0  0  0
    2.5282    0.7024   -0.6877 N   0  0  0  0  0  0  0  0  0  0  0  0
    2.2815    1.7228    0.2534 C   0  0  0  0  0  0  0  0  0  0  0  0
    3.2991    2.0646    1.1720 C   0  0  0  0  0  0  0  0  0  0  0  0
    3.0980    3.0801    2.1245 C   0  0  0  0  0  0  0  0  0  0  0  0
    1.8718    3.7742    2.1736 C   0  0  0  0  0  0  0  0  0  0  0  0
    0.8539    3.4412    1.2592 C   0  0  0  0  0  0  0  0  0  0  0  0
    1.0401    2.4218    0.2964 C   0  0  0  0  0  0  0  0  0  0  0  0
   -0.0286    2.1233   -0.5845 N   0  0  0  0  0  0  0  0  0  0  0  0
   -1.3255    1.9463   -0.0341 C   0  0  0  0  0  0  0  0  0  0  0  0
   -1.4836    1.1789    1.1442 C   0  0  0  0  0  0  0  0  0  0  0  0
   -2.7543    1.0157    1.7297 C   0  0  0  0  0  0  0  0  0  0  0  0
   -3.8812    1.6234    1.1461 C   0  0  0  0  0  0  0  0  0  0  0  0
   -3.7366    2.3959   -0.0211 C   0  0  0  0  0  0  0  0  0  0  0  0
   -2.4655    2.5607   -0.6058 C   0  0  0  0  0  0  0  0  0  0  0  0
    0.2131    2.0166   -1.9721 C   0  0  0  0  0  0  0  0  0  0  0  0
   -0.6827    1.7755   -2.7705 O   0  0  0  0  0  0  0  0  0  0  0  0
    1.5984    2.1544   -2.5326 C   0  0  0  0  0  0  0  0  0  0  0  0
    2.3350    0.9441   -2.0520 C   0  0  0  0  0  0  0  0  0  0  0  0
    2.8325    0.1967   -2.8821 O   0  0  0  0  0  0  0  0  0  0  0  0
    1.6195    4.8800    3.1949 C   0  0  0  0  0  0  0  0  0  0  0  0
    2.7761    5.8091    3.6234 C   0  0  0  0  0  0  0  0  0  0  0  0
    2.2335    4.7752    4.6080 C   0  0  0  0  0  0  0  0  0  0  0  0
    3.0917   -0.7248    0.7933 H   0  0  0  0  0  0  0  0  0  0  0  0
    2.8893   -1.3941   -0.8190 H   0  0  0  0  0  0  0  0  0  0  0  0
    4.3293   -0.4128   -0.4505 H   0  0  0  0  0  0  0  0  0  0  0  0
    4.2590    1.5543    1.1480 H   0  0  0  0  0  0  0  0  0  0  0  0
    3.9021    3.3194    2.8162 H   0  0  0  0  0  0  0  0  0  0  0  0
   -0.0935    3.9749    1.2952 H   0  0  0  0  0  0  0  0  0  0  0  0
   -0.6204    0.7009    1.6019 H   0  0  0  0  0  0  0  0  0  0  0  0
   -2.8648    0.4170    2.6317 H   0  0  0  0  0  0  0  0  0  0  0  0
   -4.8641    1.4946    1.5950 H   0  0  0  0  0  0  0  0  0  0  0  0
   -4.6068    2.8656   -0.4756 H   0  0  0  0  0  0  0  0  0  0  0  0
   -2.3750    3.1668   -1.5043 H   0  0  0  0  0  0  0  0  0  0  0  0
    1.5611    2.1612   -3.6233 H   0  0  0  0  0  0  0  0  0  0  0  0
    2.0760    3.0703   -2.1878 H   0  0  0  0  0  0  0  0  0  0  0  0
    0.6205    5.3185    3.1064 H   0  0  0  0  0  0  0  0  0  0  0  0
    2.5553    6.8652    3.8035 H   0  0  0  0  0  0  0  0  0  0  0  0
    3.7699    5.6630    3.1910 H   0  0  0  0  0  0  0  0  0  0  0  0
    1.6426    5.1266    5.4588 H   0  0  0  0  0  0  0  0  0  0  0  0
    2.8483    3.9075    4.8627 H   0  0  0  0  0  0  0  0  0  0  0  0
  1  2  1  0  0  0  0
  1 24  1  0  0  0  0
  1 25  1  0  0  0  0
  1 26  1  0  0  0  0
  2  3  1  0  0  0  0
  2 19  1  0  0  0  0
  3  4  1  0  0  0  0
  3  8  2  0  0  0  0
  4  5  2  0  0  0  0
  4 27  1  0  0  0  0
  5  6  1  0  0  0  0
  5 28  1  0  0  0  0
  6  7  2  0  0  0  0
  6 21  1  0  0  0  0
  7  8  1  0  0  0  0
  7 29  1  0  0  0  0
  8  9  1  0  0  0  0
  9 10  1  0  0  0  0
  9 16  1  0  0  0  0
 10 11  1  0  0  0  0
 10 15  2  0  0  0  0
 11 12  2  0  0  0  0
 11 30  1  0  0  0  0
 12 13  1  0  0  0  0
 12 31  1  0  0  0  0
 13 14  2  0  0  0  0
 13 32  1  0  0  0  0
 14 15  1  0  0  0  0
 14 33  1  0  0  0  0
 15 34  1  0  0  0  0
 16 17  2  0  0  0  0
 16 18  1  0  0  0  0
 18 19  1  0  0  0  0
 18 35  1  0  0  0  0
 18 36  1  0  0  0  0
 19 20  2  0  0  0  0
 21 22  1  0  0  0  0
 21 23  1  0  0  0  0
 21 37  1  0  0  0  0
 22 23  1  0  0  0  0
 22 38  1  0  0  0  0
 22 39  1  0  0  0  0
 23 40  1  0  0  0  0
 23 41  1  0  0  0  0
M  END
> <Energy FFXML>
-25.082262649079766

> <SMILES QCArchive>
[H]c1c(c(c(c(c1[H])[H])N2c3c(c(c(c(c3N(C(=O)C(C2=O)([H])[H])C([H])([H])[H])[H])[H])C4(C(C4([H])[H])([H])[H])[H])[H])[H])[H]

> <Energy QCArchive>
-624371.0049335861

> <Record QCArchive>
36954869

> <final_energy>
-25.082262649079766

$$$$
