BRI-00528-08
  -OEChem-11282313333D

 47 48  0     0  0  0  0  0  0999 V2000
   -0.9212    6.0805    5.5481 C   0  0  0  0  0  0  0  0  0  0  0  0
   -1.0976    4.5483    5.5393 C   0  0  0  0  0  0  0  0  0  0  0  0
   -2.1361    4.1339    6.5962 C   0  0  0  0  0  0  0  0  0  0  0  0
   -1.5891    4.1192    4.2383 O   0  0  0  0  0  0  0  0  0  0  0  0
   -0.6342    3.8511    3.3049 C   0  0  0  0  0  0  0  0  0  0  0  0
    0.5745    3.9581    3.4598 O   0  0  0  0  0  0  0  0  0  0  0  0
   -1.1142    3.4225    2.0920 N   0  0  0  0  0  0  0  0  0  0  0  0
   -0.2525    2.9299    1.0051 C   0  0  0  0  0  0  0  0  0  0  0  0
   -0.1809    1.3840    1.0676 C   0  0  0  0  0  0  0  0  0  0  0  0
    0.6288    0.8394   -0.1286 C   0  0  0  0  0  0  0  0  0  0  0  0
    0.0163    1.3478   -1.3806 N   0  0  0  0  0  0  0  0  0  0  0  0
   -0.0151    2.8219   -1.5154 C   0  0  0  0  0  0  0  0  0  0  0  0
   -0.8415    3.4009   -0.3472 C   0  0  0  0  0  0  0  0  0  0  0  0
   -0.8790    0.5526   -2.1138 C   0  0  0  0  0  0  0  0  0  0  0  0
   -0.9746   -0.6355   -1.8305 O   0  0  0  0  0  0  0  0  0  0  0  0
   -1.6056    1.1470   -3.1069 O   0  0  0  0  0  0  0  0  0  0  0  0
   -2.5010    0.2570   -3.8226 C   0  0  0  0  0  0  0  0  0  0  0  0
   -3.2449    1.0518   -4.8789 C   0  0  0  0  0  0  0  0  0  0  0  0
   -4.5381    1.5507   -4.6128 C   0  0  0  0  0  0  0  0  0  0  0  0
   -5.2193    2.3019   -5.5910 C   0  0  0  0  0  0  0  0  0  0  0  0
   -4.6071    2.5634   -6.8325 C   0  0  0  0  0  0  0  0  0  0  0  0
   -3.3109    2.0782   -7.0947 C   0  0  0  0  0  0  0  0  0  0  0  0
   -2.6283    1.3267   -6.1179 C   0  0  0  0  0  0  0  0  0  0  0  0
   -0.5986    6.4204    6.5359 H   0  0  0  0  0  0  0  0  0  0  0  0
   -0.1623    6.3781    4.8191 H   0  0  0  0  0  0  0  0  0  0  0  0
   -1.8632    6.5750    5.2952 H   0  0  0  0  0  0  0  0  0  0  0  0
   -0.1454    4.0656    5.7896 H   0  0  0  0  0  0  0  0  0  0  0  0
   -2.2630    3.0478    6.5918 H   0  0  0  0  0  0  0  0  0  0  0  0
   -1.8073    4.4394    7.5933 H   0  0  0  0  0  0  0  0  0  0  0  0
   -3.1027    4.6003    6.3856 H   0  0  0  0  0  0  0  0  0  0  0  0
   -2.1101    3.2374    2.0774 H   0  0  0  0  0  0  0  0  0  0  0  0
    0.7596    3.3418    1.0978 H   0  0  0  0  0  0  0  0  0  0  0  0
   -1.1898    0.9614    1.0480 H   0  0  0  0  0  0  0  0  0  0  0  0
    0.2930    1.0738    2.0034 H   0  0  0  0  0  0  0  0  0  0  0  0
    0.6625   -0.2542   -0.0976 H   0  0  0  0  0  0  0  0  0  0  0  0
    1.6668    1.1800   -0.0618 H   0  0  0  0  0  0  0  0  0  0  0  0
    1.0057    3.2157   -1.4811 H   0  0  0  0  0  0  0  0  0  0  0  0
   -0.4348    3.1420   -2.4739 H   0  0  0  0  0  0  0  0  0  0  0  0
   -0.8308    4.4935   -0.3947 H   0  0  0  0  0  0  0  0  0  0  0  0
   -1.8811    3.0722   -0.4373 H   0  0  0  0  0  0  0  0  0  0  0  0
   -1.9351   -0.5497   -4.3007 H   0  0  0  0  0  0  0  0  0  0  0  0
   -3.2161   -0.2027   -3.1320 H   0  0  0  0  0  0  0  0  0  0  0  0
   -5.0127    1.3593   -3.6525 H   0  0  0  0  0  0  0  0  0  0  0  0
   -6.2177    2.6829   -5.3860 H   0  0  0  0  0  0  0  0  0  0  0  0
   -5.1333    3.1447   -7.5871 H   0  0  0  0  0  0  0  0  0  0  0  0
   -2.8345    2.2865   -8.0506 H   0  0  0  0  0  0  0  0  0  0  0  0
   -1.6229    0.9618   -6.3191 H   0  0  0  0  0  0  0  0  0  0  0  0
  1  2  1  0  0  0  0
  1 24  1  0  0  0  0
  1 25  1  0  0  0  0
  1 26  1  0  0  0  0
  2  3  1  0  0  0  0
  2  4  1  0  0  0  0
  2 27  1  0  0  0  0
  3 28  1  0  0  0  0
  3 29  1  0  0  0  0
  3 30  1  0  0  0  0
  4  5  1  0  0  0  0
  5  6  2  0  0  0  0
  5  7  1  0  0  0  0
  7  8  1  0  0  0  0
  7 31  1  0  0  0  0
  8  9  1  0  0  0  0
  8 13  1  0  0  0  0
  8 32  1  0  0  0  0
  9 10  1  0  0  0  0
  9 33  1  0  0  0  0
  9 34  1  0  0  0  0
 10 11  1  0  0  0  0
 10 35  1  0  0  0  0
 10 36  1  0  0  0  0
 11 12  1  0  0  0  0
 11 14  1  0  0  0  0
 12 13  1  0  0  0  0
 12 37  1  0  0  0  0
 12 38  1  0  0  0  0
 13 39  1  0  0  0  0
 13 40  1  0  0  0  0
 14 15  2  0  0  0  0
 14 16  1  0  0  0  0
 16 17  1  0  0  0  0
 17 18  1  0  0  0  0
 17 41  1  0  0  0  0
 17 42  1  0  0  0  0
 18 19  1  0  0  0  0
 18 23  2  0  0  0  0
 19 20  2  0  0  0  0
 19 43  1  0  0  0  0
 20 21  1  0  0  0  0
 20 44  1  0  0  0  0
 21 22  2  0  0  0  0
 21 45  1  0  0  0  0
 22 23  1  0  0  0  0
 22 46  1  0  0  0  0
 23 47  1  0  0  0  0
M  END
> <Energy FFXML>
-75.97087592753492

> <SMILES QCArchive>
[H]c1c(c(c(c(c1[H])[H])C([H])([H])OC(=O)N2C(C(C(C(C2([H])[H])([H])[H])([H])N([H])C(=O)OC([H])(C([H])([H])[H])C([H])([H])[H])([H])[H])([H])[H])[H])[H]

> <Energy QCArchive>
-673280.0531815904

> <Record QCArchive>
36954918

> <final_energy>
-75.97087592753492

$$$$
