BRI-00226-01
  -OEChem-11282313333D

 60 63  0     1  0  0  0  0  0999 V2000
    1.9030   -0.9776    4.4370 O   0  0  0  0  0  0  0  0  0  0  0  0
    1.9271   -0.9061    5.7743 C   0  0  0  0  0  0  0  0  0  0  0  0
    2.8288   -1.3873    6.4369 O   0  0  0  0  0  0  0  0  0  0  0  0
    0.8569   -0.2975    6.4163 N   0  0  0  0  0  0  0  0  0  0  0  0
    0.7615   -0.2744    7.8781 C   0  0  0  0  0  0  0  0  0  0  0  0
   -0.5884    0.4076    8.1350 C   0  0  0  0  0  0  0  0  0  0  0  0
   -0.8604    1.2759    6.8879 C   0  0  0  0  0  0  0  0  0  0  0  0
   -0.0233    0.6639    5.7398 C   0  0  2  0  0  0  0  0  0  0  0  0
    0.5784    1.4561    5.2799 H   0  0  0  0  0  0  0  0  0  0  0  0
   -0.9035   -0.0142    4.6924 C   0  0  0  0  0  0  0  0  0  0  0  0
   -0.9808    0.5182    3.3886 C   0  0  0  0  0  0  0  0  0  0  0  0
   -1.7815   -0.1109    2.4174 C   0  0  0  0  0  0  0  0  0  0  0  0
   -2.5110   -1.2718    2.7411 C   0  0  0  0  0  0  0  0  0  0  0  0
   -2.4431   -1.8172    4.0474 C   0  0  0  0  0  0  0  0  0  0  0  0
   -1.6373   -1.1756    5.0187 C   0  0  0  0  0  0  0  0  0  0  0  0
   -3.2223   -3.0402    4.4122 C   0  0  0  0  0  0  0  0  0  0  0  0
   -3.4199   -3.2876    5.5940 O   0  0  0  0  0  0  0  0  0  0  0  0
   -3.6632   -3.8907    3.3988 N   0  0  0  0  0  0  0  0  0  0  0  0
   -4.3912   -5.0838    3.5424 C   0  0  0  0  0  0  0  0  0  0  0  0
   -4.2694   -6.0446    2.5186 C   0  0  0  0  0  0  0  0  0  0  0  0
   -4.9919   -7.2527    2.5791 C   0  0  0  0  0  0  0  0  0  0  0  0
   -5.8501   -7.5070    3.6670 C   0  0  0  0  0  0  0  0  0  0  0  0
   -6.6475   -8.7981    3.7237 C   0  0  0  0  0  0  0  0  0  0  0  0
   -8.0253   -8.6075    3.0563 C   0  0  0  0  0  0  0  0  0  0  0  0
   -8.7897   -9.8872    3.0649 N   0  0  0  0  0  0  0  0  0  0  0  0
   -9.3818  -10.2755    4.3921 C   0  0  0  0  0  0  0  0  0  0  0  0
  -10.9342  -10.2216    4.3631 C   0  0  0  0  0  0  0  0  0  0  0  0
  -11.5165  -11.0723    3.3239 O   0  0  0  0  0  0  0  0  0  0  0  0
  -10.6753  -11.2570    2.1399 C   0  0  0  0  0  0  0  0  0  0  0  0
   -9.7110  -10.0664    1.8990 C   0  0  0  0  0  0  0  0  0  0  0  0
   -5.9984   -6.5401    4.6810 C   0  0  0  0  0  0  0  0  0  0  0  0
   -5.2762   -5.3322    4.6171 C   0  0  0  0  0  0  0  0  0  0  0  0
    1.0335   -0.7118    4.1178 H   0  0  0  0  0  0  0  0  0  0  0  0
    1.5774    0.3165    8.3073 H   0  0  0  0  0  0  0  0  0  0  0  0
    0.7700   -1.2865    8.2964 H   0  0  0  0  0  0  0  0  0  0  0  0
   -0.5592    1.0122    9.0461 H   0  0  0  0  0  0  0  0  0  0  0  0
   -1.3707   -0.3510    8.2356 H   0  0  0  0  0  0  0  0  0  0  0  0
   -0.5311    2.3022    7.0747 H   0  0  0  0  0  0  0  0  0  0  0  0
   -1.9281    1.2922    6.6477 H   0  0  0  0  0  0  0  0  0  0  0  0
   -0.4302    1.4196    3.1222 H   0  0  0  0  0  0  0  0  0  0  0  0
   -1.8447    0.3083    1.4143 H   0  0  0  0  0  0  0  0  0  0  0  0
   -3.1404   -1.7169    1.9726 H   0  0  0  0  0  0  0  0  0  0  0  0
   -1.5770   -1.5864    6.0270 H   0  0  0  0  0  0  0  0  0  0  0  0
   -3.2386   -3.7218    2.4973 H   0  0  0  0  0  0  0  0  0  0  0  0
   -3.6076   -5.8686    1.6750 H   0  0  0  0  0  0  0  0  0  0  0  0
   -4.8844   -7.9897    1.7856 H   0  0  0  0  0  0  0  0  0  0  0  0
   -6.7732   -9.1095    4.7637 H   0  0  0  0  0  0  0  0  0  0  0  0
   -6.1031   -9.5971    3.2122 H   0  0  0  0  0  0  0  0  0  0  0  0
   -8.5899   -7.8273    3.5767 H   0  0  0  0  0  0  0  0  0  0  0  0
   -7.8775   -8.2696    2.0255 H   0  0  0  0  0  0  0  0  0  0  0  0
   -9.0161   -9.6198    5.1876 H   0  0  0  0  0  0  0  0  0  0  0  0
   -9.0636  -11.2911    4.6458 H   0  0  0  0  0  0  0  0  0  0  0  0
  -11.3250  -10.5259    5.3377 H   0  0  0  0  0  0  0  0  0  0  0  0
  -11.2517   -9.1876    4.2010 H   0  0  0  0  0  0  0  0  0  0  0  0
  -11.3130  -11.3910    1.2621 H   0  0  0  0  0  0  0  0  0  0  0  0
  -10.0887  -12.1732    2.2537 H   0  0  0  0  0  0  0  0  0  0  0  0
   -9.1257  -10.2499    0.9932 H   0  0  0  0  0  0  0  0  0  0  0  0
  -10.2951   -9.1552    1.7350 H   0  0  0  0  0  0  0  0  0  0  0  0
   -6.6715   -6.7190    5.5169 H   0  0  0  0  0  0  0  0  0  0  0  0
   -5.4277   -4.6034    5.4087 H   0  0  0  0  0  0  0  0  0  0  0  0
  1  2  1  0  0  0  0
  1 33  1  0  0  0  0
  2  3  2  0  0  0  0
  2  4  1  0  0  0  0
  4  5  1  0  0  0  0
  4  8  1  0  0  0  0
  5  6  1  0  0  0  0
  5 34  1  0  0  0  0
  5 35  1  0  0  0  0
  6  7  1  0  0  0  0
  6 36  1  0  0  0  0
  6 37  1  0  0  0  0
  7  8  1  0  0  0  0
  7 38  1  0  0  0  0
  7 39  1  0  0  0  0
  8  9  1  0  0  0  0
  8 10  1  0  0  0  0
 10 11  1  0  0  0  0
 10 15  2  0  0  0  0
 11 12  2  0  0  0  0
 11 40  1  0  0  0  0
 12 13  1  0  0  0  0
 12 41  1  0  0  0  0
 13 14  2  0  0  0  0
 13 42  1  0  0  0  0
 14 15  1  0  0  0  0
 14 16  1  0  0  0  0
 15 43  1  0  0  0  0
 16 17  2  0  0  0  0
 16 18  1  0  0  0  0
 18 19  1  0  0  0  0
 18 44  1  0  0  0  0
 19 20  1  0  0  0  0
 19 32  2  0  0  0  0
 20 21  2  0  0  0  0
 20 45  1  0  0  0  0
 21 22  1  0  0  0  0
 21 46  1  0  0  0  0
 22 23  1  0  0  0  0
 22 31  2  0  0  0  0
 23 24  1  0  0  0  0
 23 47  1  0  0  0  0
 23 48  1  0  0  0  0
 24 25  1  0  0  0  0
 24 49  1  0  0  0  0
 24 50  1  0  0  0  0
 25 26  1  0  0  0  0
 25 30  1  0  0  0  0
 26 27  1  0  0  0  0
 26 51  1  0  0  0  0
 26 52  1  0  0  0  0
 27 28  1  0  0  0  0
 27 53  1  0  0  0  0
 27 54  1  0  0  0  0
 28 29  1  0  0  0  0
 29 30  1  0  0  0  0
 29 55  1  0  0  0  0
 29 56  1  0  0  0  0
 30 57  1  0  0  0  0
 30 58  1  0  0  0  0
 31 32  1  0  0  0  0
 31 59  1  0  0  0  0
 32 60  1  0  0  0  0
M  END
> <Energy FFXML>
-17.819518838591886

> <SMILES QCArchive>
[H]c1c(c(c(c(c1[H])[C@]2(C(C(C(N2C(=O)O[H])([H])[H])([H])[H])([H])[H])[H])[H])C(=O)N([H])c3c(c(c(c(c3[H])[H])C([H])([H])C([H])([H])N4C(C(OC(C4([H])[H])([H])[H])([H])[H])([H])[H])[H])[H])[H]

> <Energy QCArchive>
-876919.5395084999

> <Record QCArchive>
36954847

> <final_energy>
-17.819518838591886

$$$$
