BRI-00528-03
  -OEChem-11282313333D

 47 48  0     0  0  0  0  0  0999 V2000
   -1.2469    6.0187    6.4761 C   0  0  0  0  0  0  0  0  0  0  0  0
   -0.3388    5.0605    5.6857 C   0  0  0  0  0  0  0  0  0  0  0  0
    0.0651    3.8662    6.5740 C   0  0  0  0  0  0  0  0  0  0  0  0
   -1.0891    4.5821    4.5341 O   0  0  0  0  0  0  0  0  0  0  0  0
   -0.3464    4.2492    3.4423 C   0  0  0  0  0  0  0  0  0  0  0  0
    0.8745    4.2612    3.3715 O   0  0  0  0  0  0  0  0  0  0  0  0
   -1.0724    3.8206    2.3583 N   0  0  0  0  0  0  0  0  0  0  0  0
   -0.4655    3.2640    1.1350 C   0  0  0  0  0  0  0  0  0  0  0  0
   -1.2599    3.7979   -0.0872 C   0  0  0  0  0  0  0  0  0  0  0  0
   -1.2180    2.8049   -1.2664 C   0  0  0  0  0  0  0  0  0  0  0  0
   -1.8224    1.5144   -0.8490 N   0  0  0  0  0  0  0  0  0  0  0  0
   -1.7230    1.0975    0.5755 C   0  0  0  0  0  0  0  0  0  0  0  0
   -0.4609    1.7131    1.2152 C   0  0  0  0  0  0  0  0  0  0  0  0
   -2.4866    0.7105   -1.7823 C   0  0  0  0  0  0  0  0  0  0  0  0
   -3.0496   -0.3010   -1.3808 O   0  0  0  0  0  0  0  0  0  0  0  0
   -2.4728    1.1025   -3.0908 O   0  0  0  0  0  0  0  0  0  0  0  0
   -3.1789    0.2160   -3.9969 C   0  0  0  0  0  0  0  0  0  0  0  0
   -3.0844    0.7728   -5.4046 C   0  0  0  0  0  0  0  0  0  0  0  0
   -4.0945    1.6257   -5.8987 C   0  0  0  0  0  0  0  0  0  0  0  0
   -3.9962    2.1550   -7.2007 C   0  0  0  0  0  0  0  0  0  0  0  0
   -2.8853    1.8408   -8.0078 C   0  0  0  0  0  0  0  0  0  0  0  0
   -1.8688    1.0014   -7.5112 C   0  0  0  0  0  0  0  0  0  0  0  0
   -1.9653    0.4710   -6.2095 C   0  0  0  0  0  0  0  0  0  0  0  0
   -2.1533    5.5023    6.8046 H   0  0  0  0  0  0  0  0  0  0  0  0
   -0.7219    6.4025    7.3551 H   0  0  0  0  0  0  0  0  0  0  0  0
   -1.5349    6.8661    5.8481 H   0  0  0  0  0  0  0  0  0  0  0  0
    0.5575    5.6139    5.3812 H   0  0  0  0  0  0  0  0  0  0  0  0
    0.7339    3.1965    6.0262 H   0  0  0  0  0  0  0  0  0  0  0  0
   -0.8200    3.3027    6.8822 H   0  0  0  0  0  0  0  0  0  0  0  0
    0.5886    4.2168    7.4675 H   0  0  0  0  0  0  0  0  0  0  0  0
   -2.0638    3.7099    2.5345 H   0  0  0  0  0  0  0  0  0  0  0  0
    0.5714    3.6067    1.0356 H   0  0  0  0  0  0  0  0  0  0  0  0
   -0.8444    4.7600   -0.3997 H   0  0  0  0  0  0  0  0  0  0  0  0
   -2.3040    3.9728    0.1898 H   0  0  0  0  0  0  0  0  0  0  0  0
   -0.1854    2.6486   -1.5943 H   0  0  0  0  0  0  0  0  0  0  0  0
   -1.7734    3.2423   -2.1025 H   0  0  0  0  0  0  0  0  0  0  0  0
   -2.6166    1.4139    1.1222 H   0  0  0  0  0  0  0  0  0  0  0  0
   -1.6507    0.0075    0.6541 H   0  0  0  0  0  0  0  0  0  0  0  0
    0.4226    1.3300    0.6962 H   0  0  0  0  0  0  0  0  0  0  0  0
   -0.3770    1.3899    2.2570 H   0  0  0  0  0  0  0  0  0  0  0  0
   -4.2304    0.1280   -3.7034 H   0  0  0  0  0  0  0  0  0  0  0  0
   -2.7409   -0.7875   -3.9676 H   0  0  0  0  0  0  0  0  0  0  0  0
   -4.9500    1.8792   -5.2757 H   0  0  0  0  0  0  0  0  0  0  0  0
   -4.7775    2.8097   -7.5815 H   0  0  0  0  0  0  0  0  0  0  0  0
   -2.8094    2.2510   -9.0129 H   0  0  0  0  0  0  0  0  0  0  0  0
   -1.0066    0.7650   -8.1315 H   0  0  0  0  0  0  0  0  0  0  0  0
   -1.1732   -0.1688   -5.8254 H   0  0  0  0  0  0  0  0  0  0  0  0
  1  2  1  0  0  0  0
  1 24  1  0  0  0  0
  1 25  1  0  0  0  0
  1 26  1  0  0  0  0
  2  3  1  0  0  0  0
  2  4  1  0  0  0  0
  2 27  1  0  0  0  0
  3 28  1  0  0  0  0
  3 29  1  0  0  0  0
  3 30  1  0  0  0  0
  4  5  1  0  0  0  0
  5  6  2  0  0  0  0
  5  7  1  0  0  0  0
  7  8  1  0  0  0  0
  7 31  1  0  0  0  0
  8  9  1  0  0  0  0
  8 13  1  0  0  0  0
  8 32  1  0  0  0  0
  9 10  1  0  0  0  0
  9 33  1  0  0  0  0
  9 34  1  0  0  0  0
 10 11  1  0  0  0  0
 10 35  1  0  0  0  0
 10 36  1  0  0  0  0
 11 12  1  0  0  0  0
 11 14  1  0  0  0  0
 12 13  1  0  0  0  0
 12 37  1  0  0  0  0
 12 38  1  0  0  0  0
 13 39  1  0  0  0  0
 13 40  1  0  0  0  0
 14 15  2  0  0  0  0
 14 16  1  0  0  0  0
 16 17  1  0  0  0  0
 17 18  1  0  0  0  0
 17 41  1  0  0  0  0
 17 42  1  0  0  0  0
 18 19  1  0  0  0  0
 18 23  2  0  0  0  0
 19 20  2  0  0  0  0
 19 43  1  0  0  0  0
 20 21  1  0  0  0  0
 20 44  1  0  0  0  0
 21 22  2  0  0  0  0
 21 45  1  0  0  0  0
 22 23  1  0  0  0  0
 22 46  1  0  0  0  0
 23 47  1  0  0  0  0
M  END
> <Energy FFXML>
-71.63723868522501

> <SMILES QCArchive>
[H]c1c(c(c(c(c1[H])[H])C([H])([H])OC(=O)N2C(C(C(C(C2([H])[H])([H])[H])([H])N([H])C(=O)OC([H])(C([H])([H])[H])C([H])([H])[H])([H])[H])([H])[H])[H])[H]

> <Energy QCArchive>
-673275.0405048676

> <Record QCArchive>
36954913

> <final_energy>
-71.63723868522501

$$$$
