BRI-00174-08
  -OEChem-11282313333D

 41 44  0     0  0  0  0  0  0999 V2000
    3.3720   -0.3520   -0.4419 C   0  0  0  0  0  0  0  0  0  0  0  0
    2.5706    0.8461   -0.7955 N   0  0  0  0  0  0  0  0  0  0  0  0
    2.2995    1.8186    0.1885 C   0  0  0  0  0  0  0  0  0  0  0  0
    3.3247    2.1808    1.0908 C   0  0  0  0  0  0  0  0  0  0  0  0
    3.0997    3.1504    2.0848 C   0  0  0  0  0  0  0  0  0  0  0  0
    1.8415    3.7774    2.1927 C   0  0  0  0  0  0  0  0  0  0  0  0
    0.8158    3.4239    1.2950 C   0  0  0  0  0  0  0  0  0  0  0  0
    1.0257    2.4499    0.2910 C   0  0  0  0  0  0  0  0  0  0  0  0
   -0.0516    2.1270   -0.5707 N   0  0  0  0  0  0  0  0  0  0  0  0
   -1.3211    1.8632    0.0083 C   0  0  0  0  0  0  0  0  0  0  0  0
   -2.5073    2.4369   -0.5091 C   0  0  0  0  0  0  0  0  0  0  0  0
   -3.7507    2.1855    0.1038 C   0  0  0  0  0  0  0  0  0  0  0  0
   -3.8212    1.3662    1.2455 C   0  0  0  0  0  0  0  0  0  0  0  0
   -2.6482    0.7982    1.7755 C   0  0  0  0  0  0  0  0  0  0  0  0
   -1.4051    1.0479    1.1617 C   0  0  0  0  0  0  0  0  0  0  0  0
    0.1546    2.0816   -1.9673 C   0  0  0  0  0  0  0  0  0  0  0  0
   -0.7507    1.8220   -2.7491 O   0  0  0  0  0  0  0  0  0  0  0  0
    1.5140    2.3111   -2.5601 C   0  0  0  0  0  0  0  0  0  0  0  0
    2.3254    1.1249   -2.1443 C   0  0  0  0  0  0  0  0  0  0  0  0
    2.8360    0.4340   -3.0145 O   0  0  0  0  0  0  0  0  0  0  0  0
    1.5629    4.8321    3.2602 C   0  0  0  0  0  0  0  0  0  0  0  0
    2.6824    5.8048    3.6904 C   0  0  0  0  0  0  0  0  0  0  0  0
    2.2225    4.7103    4.6511 C   0  0  0  0  0  0  0  0  0  0  0  0
    3.0345   -1.2229   -1.0130 H   0  0  0  0  0  0  0  0  0  0  0  0
    4.4326   -0.1811   -0.6485 H   0  0  0  0  0  0  0  0  0  0  0  0
    3.2495   -0.6007    0.6165 H   0  0  0  0  0  0  0  0  0  0  0  0
    4.3084    1.7225    1.0219 H   0  0  0  0  0  0  0  0  0  0  0  0
    3.9104    3.4071    2.7624 H   0  0  0  0  0  0  0  0  0  0  0  0
   -0.1563    3.9058    1.3764 H   0  0  0  0  0  0  0  0  0  0  0  0
   -2.4743    3.0779   -1.3871 H   0  0  0  0  0  0  0  0  0  0  0  0
   -4.6567    2.6247   -0.3093 H   0  0  0  0  0  0  0  0  0  0  0  0
   -4.7827    1.1706    1.7163 H   0  0  0  0  0  0  0  0  0  0  0  0
   -2.7013    0.1634    2.6578 H   0  0  0  0  0  0  0  0  0  0  0  0
   -0.5056    0.6000    1.5780 H   0  0  0  0  0  0  0  0  0  0  0  0
    1.9539    3.2381   -2.1954 H   0  0  0  0  0  0  0  0  0  0  0  0
    1.4445    2.3541   -3.6484 H   0  0  0  0  0  0  0  0  0  0  0  0
    0.5406    5.2207    3.2151 H   0  0  0  0  0  0  0  0  0  0  0  0
    2.4131    6.8410    3.9148 H   0  0  0  0  0  0  0  0  0  0  0  0
    3.6693    5.7261    3.2259 H   0  0  0  0  0  0  0  0  0  0  0  0
    1.6395    5.0003    5.5300 H   0  0  0  0  0  0  0  0  0  0  0  0
    2.8882    3.8675    4.8572 H   0  0  0  0  0  0  0  0  0  0  0  0
  1  2  1  0  0  0  0
  1 24  1  0  0  0  0
  1 25  1  0  0  0  0
  1 26  1  0  0  0  0
  2  3  1  0  0  0  0
  2 19  1  0  0  0  0
  3  4  1  0  0  0  0
  3  8  2  0  0  0  0
  4  5  2  0  0  0  0
  4 27  1  0  0  0  0
  5  6  1  0  0  0  0
  5 28  1  0  0  0  0
  6  7  2  0  0  0  0
  6 21  1  0  0  0  0
  7  8  1  0  0  0  0
  7 29  1  0  0  0  0
  8  9  1  0  0  0  0
  9 10  1  0  0  0  0
  9 16  1  0  0  0  0
 10 11  1  0  0  0  0
 10 15  2  0  0  0  0
 11 12  2  0  0  0  0
 11 30  1  0  0  0  0
 12 13  1  0  0  0  0
 12 31  1  0  0  0  0
 13 14  2  0  0  0  0
 13 32  1  0  0  0  0
 14 15  1  0  0  0  0
 14 33  1  0  0  0  0
 15 34  1  0  0  0  0
 16 17  2  0  0  0  0
 16 18  1  0  0  0  0
 18 19  1  0  0  0  0
 18 35  1  0  0  0  0
 18 36  1  0  0  0  0
 19 20  2  0  0  0  0
 21 22  1  0  0  0  0
 21 23  1  0  0  0  0
 21 37  1  0  0  0  0
 22 23  1  0  0  0  0
 22 38  1  0  0  0  0
 22 39  1  0  0  0  0
 23 40  1  0  0  0  0
 23 41  1  0  0  0  0
M  END
> <Energy FFXML>
-25.08226264907826

> <SMILES QCArchive>
[H]c1c(c(c(c(c1[H])[H])N2c3c(c(c(c(c3N(C(=O)C(C2=O)([H])[H])C([H])([H])[H])[H])[H])C4(C(C4([H])[H])([H])[H])[H])[H])[H])[H]

> <Energy QCArchive>
-624371.0048928369

> <Record QCArchive>
36954876

> <final_energy>
-25.08226264907826

$$$$
