BRI-01347-02
  -OEChem-11282313333D

 46 46  0     1  0  0  0  0  0999 V2000
   -7.7841   -0.5368   10.9935 C   0  0  0  0  0  0  0  0  0  0  0  0
   -8.3409   -0.4289    9.5614 C   0  0  0  0  0  0  0  0  0  0  0  0
   -7.3532    0.3340    8.6497 C   0  0  0  0  0  0  0  0  0  0  0  0
   -7.9068    0.4437    7.2174 C   0  0  0  0  0  0  0  0  0  0  0  0
   -6.9497    1.1652    6.3982 O   0  0  0  0  0  0  0  0  0  0  0  0
   -7.3171    1.3374    5.0919 C   0  0  0  0  0  0  0  0  0  0  0  0
   -8.3767    0.9140    4.6381 O   0  0  0  0  0  0  0  0  0  0  0  0
   -6.4077    2.0199    4.3309 O   0  0  0  0  0  0  0  0  0  0  0  0
   -6.7853    2.2088    2.9425 C   0  0  0  0  0  0  0  0  0  0  0  0
   -5.6675    2.9851    2.2246 C   0  0  0  0  0  0  0  0  0  0  0  0
   -6.0272    3.2110    0.7347 C   0  0  0  0  0  0  0  0  0  0  0  0
   -4.9279    4.0230    0.0106 C   0  0  2  0  0  0  0  0  0  0  0  0
   -5.3541    4.2975   -1.4455 C   0  0  0  0  0  0  0  0  0  0  0  0
   -3.6991    3.2387    0.0105 O   0  0  0  0  0  0  0  0  0  0  0  0
   -2.5234    3.9540    0.0149 C   0  0  0  0  0  0  0  0  0  0  0  0
   -2.4615    5.1779   -0.0457 O   0  0  0  0  0  0  0  0  0  0  0  0
   -1.2437    3.1841    0.0721 C   0  0  0  0  0  0  0  0  0  0  0  0
   -1.2651    1.7688    0.1354 C   0  0  0  0  0  0  0  0  0  0  0  0
   -0.0592    1.0414    0.1911 C   0  0  0  0  0  0  0  0  0  0  0  0
    1.1732    1.7179    0.1841 C   0  0  0  0  0  0  0  0  0  0  0  0
    2.6643    0.8126    0.2532 Cl  0  0  0  0  0  0  0  0  0  0  0  0
    1.2071    3.1220    0.1217 C   0  0  0  0  0  0  0  0  0  0  0  0
    0.0052    3.8555    0.0660 C   0  0  0  0  0  0  0  0  0  0  0  0
   -6.8321   -1.0756   10.9937 H   0  0  0  0  0  0  0  0  0  0  0  0
   -7.6258    0.4589   11.4179 H   0  0  0  0  0  0  0  0  0  0  0  0
   -8.4889   -1.0777   11.6312 H   0  0  0  0  0  0  0  0  0  0  0  0
   -9.3031    0.0921    9.5834 H   0  0  0  0  0  0  0  0  0  0  0  0
   -8.5143   -1.4329    9.1618 H   0  0  0  0  0  0  0  0  0  0  0  0
   -6.3917   -0.1876    8.6276 H   0  0  0  0  0  0  0  0  0  0  0  0
   -7.1807    1.3378    9.0494 H   0  0  0  0  0  0  0  0  0  0  0  0
   -8.8662    0.9722    7.2341 H   0  0  0  0  0  0  0  0  0  0  0  0
   -8.0740   -0.5595    6.8105 H   0  0  0  0  0  0  0  0  0  0  0  0
   -7.7233    2.7709    2.8781 H   0  0  0  0  0  0  0  0  0  0  0  0
   -6.9308    1.2392    2.4539 H   0  0  0  0  0  0  0  0  0  0  0  0
   -4.7322    2.4226    2.3015 H   0  0  0  0  0  0  0  0  0  0  0  0
   -5.5184    3.9488    2.7207 H   0  0  0  0  0  0  0  0  0  0  0  0
   -6.9782    3.7480    0.6681 H   0  0  0  0  0  0  0  0  0  0  0  0
   -6.1573    2.2458    0.2355 H   0  0  0  0  0  0  0  0  0  0  0  0
   -4.8019    4.9751    0.5396 H   0  0  0  0  0  0  0  0  0  0  0  0
   -5.4871    3.3576   -1.9884 H   0  0  0  0  0  0  0  0  0  0  0  0
   -6.2946    4.8547   -1.4687 H   0  0  0  0  0  0  0  0  0  0  0  0
   -4.5918    4.8922   -1.9565 H   0  0  0  0  0  0  0  0  0  0  0  0
   -2.2109    1.2282    0.1417 H   0  0  0  0  0  0  0  0  0  0  0  0
   -0.0732   -0.0452    0.2399 H   0  0  0  0  0  0  0  0  0  0  0  0
    2.1656    3.6363    0.1171 H   0  0  0  0  0  0  0  0  0  0  0  0
    0.0453    4.9437    0.0182 H   0  0  0  0  0  0  0  0  0  0  0  0
  1  2  1  0  0  0  0
  1 24  1  0  0  0  0
  1 25  1  0  0  0  0
  1 26  1  0  0  0  0
  2  3  1  0  0  0  0
  2 27  1  0  0  0  0
  2 28  1  0  0  0  0
  3  4  1  0  0  0  0
  3 29  1  0  0  0  0
  3 30  1  0  0  0  0
  4  5  1  0  0  0  0
  4 31  1  0  0  0  0
  4 32  1  0  0  0  0
  5  6  1  0  0  0  0
  6  7  2  0  0  0  0
  6  8  1  0  0  0  0
  8  9  1  0  0  0  0
  9 10  1  0  0  0  0
  9 33  1  0  0  0  0
  9 34  1  0  0  0  0
 10 11  1  0  0  0  0
 10 35  1  0  0  0  0
 10 36  1  0  0  0  0
 11 12  1  0  0  0  0
 11 37  1  0  0  0  0
 11 38  1  0  0  0  0
 12 13  1  0  0  0  0
 12 14  1  0  0  0  0
 12 39  1  0  0  0  0
 13 40  1  0  0  0  0
 13 41  1  0  0  0  0
 13 42  1  0  0  0  0
 14 15  1  0  0  0  0
 15 16  2  0  0  0  0
 15 17  1  0  0  0  0
 17 18  1  0  0  0  0
 17 23  2  0  0  0  0
 18 19  2  0  0  0  0
 18 43  1  0  0  0  0
 19 20  1  0  0  0  0
 19 44  1  0  0  0  0
 20 21  1  0  0  0  0
 20 22  2  0  0  0  0
 22 23  1  0  0  0  0
 22 45  1  0  0  0  0
 23 46  1  0  0  0  0
M  END
> <Energy FFXML>
-20.88551073652539

> <SMILES QCArchive>
[H]c1c(c(c(c(c1C(=O)O[C@@]([H])(C([H])([H])[H])C([H])([H])C([H])([H])C([H])([H])OC(=O)OC([H])([H])C([H])([H])C([H])([H])C([H])([H])[H])[H])[H])Cl)[H]

> <Energy QCArchive>
-940139.4549751885

> <Record QCArchive>
36954922

> <final_energy>
-20.88551073652539

$$$$
