BRI-00386-08
  -OEChem-11282313333D

 40 42  0     1  0  0  0  0  0999 V2000
    2.0521   -3.2389   -1.9742 C   0  0  0  0  0  0  0  0  0  0  0  0
    2.9688   -2.1158   -1.9960 O   0  0  0  0  0  0  0  0  0  0  0  0
    2.5232   -1.0461   -2.7751 C   0  0  0  0  0  0  0  0  0  0  0  0
    3.0974   -0.7672   -4.0389 C   0  0  0  0  0  0  0  0  0  0  0  0
    2.6295    0.2936   -4.7512 N   0  0  0  0  0  0  0  0  0  0  0  0
    1.6334    1.0596   -4.2813 C   0  0  0  0  0  0  0  0  0  0  0  0
    1.0665    0.8273   -3.0937 N   0  0  0  0  0  0  0  0  0  0  0  0
    1.4955   -0.1815   -2.3314 C   0  0  0  0  0  0  0  0  0  0  0  0
    0.8950   -0.3295   -1.0709 N   0  0  1  0  0  0  0  0  0  0  0  0
    1.7646   -0.1905    0.1252 C   0  0  0  0  0  0  0  0  0  0  0  0
    1.9817    1.3095    0.4114 C   0  0  0  0  0  0  0  0  0  0  0  0
    0.6686    2.0875    0.4147 C   0  0  0  0  0  0  0  0  0  0  0  0
    0.6274    3.3613    1.0135 C   0  0  0  0  0  0  0  0  0  0  0  0
   -0.5597    4.1172    0.9877 C   0  0  0  0  0  0  0  0  0  0  0  0
   -1.7188    3.6246    0.3609 C   0  0  0  0  0  0  0  0  0  0  0  0
   -2.8379    4.4597    0.4003 O   0  0  0  0  0  0  0  0  0  0  0  0
   -4.0692    4.0098   -0.2369 C   0  0  0  0  0  0  0  0  0  0  0  0
   -4.5429    2.8724    0.3465 F   0  0  0  0  0  0  0  0  0  0  0  0
   -5.0017    4.9834   -0.0677 F   0  0  0  0  0  0  0  0  0  0  0  0
   -3.8977    3.8232   -1.5759 F   0  0  0  0  0  0  0  0  0  0  0  0
   -1.6741    2.3451   -0.2530 C   0  0  0  0  0  0  0  0  0  0  0  0
   -0.4859    1.5813   -0.2370 C   0  0  0  0  0  0  0  0  0  0  0  0
   -0.4887    0.1905   -0.8728 C   0  0  0  0  0  0  0  0  0  0  0  0
    4.2081   -1.6196   -4.6391 C   0  0  0  0  0  0  0  0  0  0  0  0
    4.9037   -1.1872   -5.7166 O   0  0  0  0  0  0  0  0  0  0  0  0
    4.4796   -2.7403   -4.2279 O   0  0  0  0  0  0  0  0  0  0  0  0
    1.8522   -3.5913   -2.9906 H   0  0  0  0  0  0  0  0  0  0  0  0
    2.4925   -4.0637   -1.4078 H   0  0  0  0  0  0  0  0  0  0  0  0
    1.1054   -2.9656   -1.5003 H   0  0  0  0  0  0  0  0  0  0  0  0
    1.2781    1.8941   -4.8835 H   0  0  0  0  0  0  0  0  0  0  0  0
    1.2851   -0.6662    0.9868 H   0  0  0  0  0  0  0  0  0  0  0  0
    2.7298   -0.6859   -0.0082 H   0  0  0  0  0  0  0  0  0  0  0  0
    2.4863    1.4235    1.3745 H   0  0  0  0  0  0  0  0  0  0  0  0
    2.6395    1.7290   -0.3550 H   0  0  0  0  0  0  0  0  0  0  0  0
    1.5140    3.7699    1.4941 H   0  0  0  0  0  0  0  0  0  0  0  0
   -0.5922    5.1002    1.4521 H   0  0  0  0  0  0  0  0  0  0  0  0
   -2.5341    1.9110   -0.7534 H   0  0  0  0  0  0  0  0  0  0  0  0
   -1.0379   -0.4955   -0.2210 H   0  0  0  0  0  0  0  0  0  0  0  0
   -1.0403    0.2095   -1.8188 H   0  0  0  0  0  0  0  0  0  0  0  0
    5.5420   -1.8624   -5.9800 H   0  0  0  0  0  0  0  0  0  0  0  0
  1  2  1  0  0  0  0
  1 27  1  0  0  0  0
  1 28  1  0  0  0  0
  1 29  1  0  0  0  0
  2  3  1  0  0  0  0
  3  4  1  0  0  0  0
  3  8  2  0  0  0  0
  4  5  2  0  0  0  0
  4 24  1  0  0  0  0
  5  6  1  0  0  0  0
  6  7  2  0  0  0  0
  6 30  1  0  0  0  0
  7  8  1  0  0  0  0
  8  9  1  0  0  0  0
  9 10  1  0  0  0  0
  9 23  1  0  0  0  0
 10 11  1  0  0  0  0
 10 31  1  0  0  0  0
 10 32  1  0  0  0  0
 11 12  1  0  0  0  0
 11 33  1  0  0  0  0
 11 34  1  0  0  0  0
 12 13  1  0  0  0  0
 12 22  2  0  0  0  0
 13 14  2  0  0  0  0
 13 35  1  0  0  0  0
 14 15  1  0  0  0  0
 14 36  1  0  0  0  0
 15 16  1  0  0  0  0
 15 21  2  0  0  0  0
 16 17  1  0  0  0  0
 17 18  1  0  0  0  0
 17 19  1  0  0  0  0
 17 20  1  0  0  0  0
 21 22  1  0  0  0  0
 21 37  1  0  0  0  0
 22 23  1  0  0  0  0
 23 38  1  0  0  0  0
 23 39  1  0  0  0  0
 24 25  1  0  0  0  0
 24 26  2  0  0  0  0
 25 40  1  0  0  0  0
M  END
> <Energy FFXML>
-27.53707318510842

> <SMILES QCArchive>
[H]c1c(c(c(c2c1C(C(N(C2([H])[H])c3c(c(nc(n3)[H])C(=O)O[H])OC([H])([H])[H])([H])[H])([H])[H])[H])OC(F)(F)F)[H]

> <Energy QCArchive>
-867907.8422929941

> <Record QCArchive>
36954902

> <final_energy>
-27.53707318510842

$$$$
