BRI-00226-05
  -OEChem-11282313333D

 60 63  0     1  0  0  0  0  0999 V2000
   -0.5545   -2.4092    8.6226 O   0  0  0  0  0  0  0  0  0  0  0  0
   -0.0682   -2.0220    7.4449 C   0  0  0  0  0  0  0  0  0  0  0  0
    0.9088   -2.5947    6.9998 O   0  0  0  0  0  0  0  0  0  0  0  0
   -0.6733   -0.9865    6.7495 N   0  0  0  0  0  0  0  0  0  0  0  0
   -1.6483   -0.1005    7.3901 C   0  0  0  0  0  0  0  0  0  0  0  0
   -1.4597    1.2314    6.6504 C   0  0  0  0  0  0  0  0  0  0  0  0
   -0.8677    0.8608    5.2760 C   0  0  0  0  0  0  0  0  0  0  0  0
   -0.1248   -0.4783    5.4828 C   0  0  2  0  0  0  0  0  0  0  0  0
    0.9467   -0.2813    5.6008 H   0  0  0  0  0  0  0  0  0  0  0  0
   -0.3694   -1.4261    4.3082 C   0  0  0  0  0  0  0  0  0  0  0  0
    0.6244   -1.5828    3.3202 C   0  0  0  0  0  0  0  0  0  0  0  0
    0.3967   -2.4246    2.2156 C   0  0  0  0  0  0  0  0  0  0  0  0
   -0.8225   -3.1179    2.0936 C   0  0  0  0  0  0  0  0  0  0  0  0
   -1.8269   -2.9799    3.0817 C   0  0  0  0  0  0  0  0  0  0  0  0
   -1.5951   -2.1183    4.1832 C   0  0  0  0  0  0  0  0  0  0  0  0
   -3.1109   -3.7324    2.9558 C   0  0  0  0  0  0  0  0  0  0  0  0
   -3.3947   -4.2555    1.8861 O   0  0  0  0  0  0  0  0  0  0  0  0
   -3.9172   -3.8807    4.0828 N   0  0  0  0  0  0  0  0  0  0  0  0
   -5.1336   -4.5757    4.1757 C   0  0  0  0  0  0  0  0  0  0  0  0
   -6.0298   -4.7203    3.0920 C   0  0  0  0  0  0  0  0  0  0  0  0
   -7.2492   -5.4039    3.2640 C   0  0  0  0  0  0  0  0  0  0  0  0
   -7.5904   -5.9381    4.5222 C   0  0  0  0  0  0  0  0  0  0  0  0
   -8.8923   -6.7062    4.6959 C   0  0  0  0  0  0  0  0  0  0  0  0
   -8.7082   -8.2187    4.4371 C   0  0  0  0  0  0  0  0  0  0  0  0
   -8.5512   -8.4899    2.9732 N   0  0  0  0  0  0  0  0  0  0  0  0
   -7.1463   -8.7629    2.5308 C   0  0  0  0  0  0  0  0  0  0  0  0
   -6.7639  -10.2493    2.7667 C   0  0  0  0  0  0  0  0  0  0  0  0
   -7.7435  -11.1533    2.1762 O   0  0  0  0  0  0  0  0  0  0  0  0
   -9.0973  -10.9176    2.6590 C   0  0  0  0  0  0  0  0  0  0  0  0
   -9.5370   -9.4529    2.3968 C   0  0  0  0  0  0  0  0  0  0  0  0
   -6.7063   -5.7854    5.6088 C   0  0  0  0  0  0  0  0  0  0  0  0
   -5.4888   -5.0976    5.4354 C   0  0  0  0  0  0  0  0  0  0  0  0
   -0.0055   -3.1328    8.9496 H   0  0  0  0  0  0  0  0  0  0  0  0
   -2.6637   -0.4831    7.2491 H   0  0  0  0  0  0  0  0  0  0  0  0
   -1.4422    0.0306    8.4576 H   0  0  0  0  0  0  0  0  0  0  0  0
   -0.7521    1.8603    7.1992 H   0  0  0  0  0  0  0  0  0  0  0  0
   -2.4086    1.7656    6.5467 H   0  0  0  0  0  0  0  0  0  0  0  0
   -0.1844    1.6361    4.9178 H   0  0  0  0  0  0  0  0  0  0  0  0
   -1.6766    0.7434    4.5482 H   0  0  0  0  0  0  0  0  0  0  0  0
    1.5726   -1.0560    3.4066 H   0  0  0  0  0  0  0  0  0  0  0  0
    1.1658   -2.5441    1.4552 H   0  0  0  0  0  0  0  0  0  0  0  0
   -0.9855   -3.7702    1.2356 H   0  0  0  0  0  0  0  0  0  0  0  0
   -2.3552   -1.9644    4.9452 H   0  0  0  0  0  0  0  0  0  0  0  0
   -3.4644   -3.6205    4.9489 H   0  0  0  0  0  0  0  0  0  0  0  0
   -5.8056   -4.3095    2.1113 H   0  0  0  0  0  0  0  0  0  0  0  0
   -7.9235   -5.5343    2.4193 H   0  0  0  0  0  0  0  0  0  0  0  0
   -9.2660   -6.5596    5.7128 H   0  0  0  0  0  0  0  0  0  0  0  0
   -9.6546   -6.3110    4.0183 H   0  0  0  0  0  0  0  0  0  0  0  0
   -7.8439   -8.5886    4.9977 H   0  0  0  0  0  0  0  0  0  0  0  0
   -9.5826   -8.7490    4.8262 H   0  0  0  0  0  0  0  0  0  0  0  0
   -7.0526   -8.5340    1.4651 H   0  0  0  0  0  0  0  0  0  0  0  0
   -6.4407   -8.1156    3.0592 H   0  0  0  0  0  0  0  0  0  0  0  0
   -5.7798  -10.4431    2.3316 H   0  0  0  0  0  0  0  0  0  0  0  0
   -6.6875  -10.4407    3.8406 H   0  0  0  0  0  0  0  0  0  0  0  0
   -9.1495  -11.1300    3.7305 H   0  0  0  0  0  0  0  0  0  0  0  0
   -9.7876  -11.5998    2.1558 H   0  0  0  0  0  0  0  0  0  0  0  0
   -9.6109   -9.2903    1.3173 H   0  0  0  0  0  0  0  0  0  0  0  0
  -10.5336   -9.2810    2.8142 H   0  0  0  0  0  0  0  0  0  0  0  0
   -6.9600   -6.1989    6.5824 H   0  0  0  0  0  0  0  0  0  0  0  0
   -4.8177   -4.9861    6.2827 H   0  0  0  0  0  0  0  0  0  0  0  0
  1  2  1  0  0  0  0
  1 33  1  0  0  0  0
  2  3  2  0  0  0  0
  2  4  1  0  0  0  0
  4  5  1  0  0  0  0
  4  8  1  0  0  0  0
  5  6  1  0  0  0  0
  5 34  1  0  0  0  0
  5 35  1  0  0  0  0
  6  7  1  0  0  0  0
  6 36  1  0  0  0  0
  6 37  1  0  0  0  0
  7  8  1  0  0  0  0
  7 38  1  0  0  0  0
  7 39  1  0  0  0  0
  8  9  1  0  0  0  0
  8 10  1  0  0  0  0
 10 11  1  0  0  0  0
 10 15  2  0  0  0  0
 11 12  2  0  0  0  0
 11 40  1  0  0  0  0
 12 13  1  0  0  0  0
 12 41  1  0  0  0  0
 13 14  2  0  0  0  0
 13 42  1  0  0  0  0
 14 15  1  0  0  0  0
 14 16  1  0  0  0  0
 15 43  1  0  0  0  0
 16 17  2  0  0  0  0
 16 18  1  0  0  0  0
 18 19  1  0  0  0  0
 18 44  1  0  0  0  0
 19 20  1  0  0  0  0
 19 32  2  0  0  0  0
 20 21  2  0  0  0  0
 20 45  1  0  0  0  0
 21 22  1  0  0  0  0
 21 46  1  0  0  0  0
 22 23  1  0  0  0  0
 22 31  2  0  0  0  0
 23 24  1  0  0  0  0
 23 47  1  0  0  0  0
 23 48  1  0  0  0  0
 24 25  1  0  0  0  0
 24 49  1  0  0  0  0
 24 50  1  0  0  0  0
 25 26  1  0  0  0  0
 25 30  1  0  0  0  0
 26 27  1  0  0  0  0
 26 51  1  0  0  0  0
 26 52  1  0  0  0  0
 27 28  1  0  0  0  0
 27 53  1  0  0  0  0
 27 54  1  0  0  0  0
 28 29  1  0  0  0  0
 29 30  1  0  0  0  0
 29 55  1  0  0  0  0
 29 56  1  0  0  0  0
 30 57  1  0  0  0  0
 30 58  1  0  0  0  0
 31 32  1  0  0  0  0
 31 59  1  0  0  0  0
 32 60  1  0  0  0  0
M  END
> <Energy FFXML>
-25.25667643712484

> <SMILES QCArchive>
[H]c1c(c(c(c(c1[H])[C@]2(C(C(C(N2C(=O)O[H])([H])[H])([H])[H])([H])[H])[H])[H])C(=O)N([H])c3c(c(c(c(c3[H])[H])C([H])([H])C([H])([H])N4C(C(OC(C4([H])[H])([H])[H])([H])[H])([H])[H])[H])[H])[H]

> <Energy QCArchive>
-876928.7903959161

> <Record QCArchive>
36954851

> <final_energy>
-25.25667643712484

$$$$
