BRI-00386-04
  -OEChem-11282313333D

 40 42  0     1  0  0  0  0  0999 V2000
    1.9871   -2.2947   -1.1133 C   0  0  0  0  0  0  0  0  0  0  0  0
    3.0011   -1.5549   -1.8397 O   0  0  0  0  0  0  0  0  0  0  0  0
    2.5369   -1.0060   -3.0367 C   0  0  0  0  0  0  0  0  0  0  0  0
    2.8577   -1.5816   -4.2899 C   0  0  0  0  0  0  0  0  0  0  0  0
    2.3663   -1.0033   -5.4201 N   0  0  0  0  0  0  0  0  0  0  0  0
    1.5814    0.0834   -5.3597 C   0  0  0  0  0  0  0  0  0  0  0  0
    1.2591    0.6572   -4.1956 N   0  0  0  0  0  0  0  0  0  0  0  0
    1.7316    0.1554   -3.0522 C   0  0  0  0  0  0  0  0  0  0  0  0
    1.3853    0.8332   -1.8783 N   0  0  1  0  0  0  0  0  0  0  0  0
    2.4732    1.3663   -1.0214 C   0  0  0  0  0  0  0  0  0  0  0  0
    2.0118    1.3019    0.4436 C   0  0  0  0  0  0  0  0  0  0  0  0
    0.6454    1.9493    0.6303 C   0  0  0  0  0  0  0  0  0  0  0  0
    0.2607    2.3867    1.9124 C   0  0  0  0  0  0  0  0  0  0  0  0
   -1.0116    2.9537    2.1139 C   0  0  0  0  0  0  0  0  0  0  0  0
   -1.9215    3.0877    1.0495 C   0  0  0  0  0  0  0  0  0  0  0  0
   -3.1525    3.6667    1.3660 O   0  0  0  0  0  0  0  0  0  0  0  0
   -4.1409    3.8325    0.3074 C   0  0  0  0  0  0  0  0  0  0  0  0
   -4.5155    2.6307   -0.2149 F   0  0  0  0  0  0  0  0  0  0  0  0
   -3.6817    4.6576   -0.6755 F   0  0  0  0  0  0  0  0  0  0  0  0
   -5.2415    4.4101    0.8561 F   0  0  0  0  0  0  0  0  0  0  0  0
   -1.5372    2.6360   -0.2407 C   0  0  0  0  0  0  0  0  0  0  0  0
   -0.2644    2.0603   -0.4523 C   0  0  0  0  0  0  0  0  0  0  0  0
    0.1157    1.6111   -1.8639 C   0  0  0  0  0  0  0  0  0  0  0  0
    3.7162   -2.8334   -4.4213 C   0  0  0  0  0  0  0  0  0  0  0  0
    4.1827   -3.2260   -5.6296 O   0  0  0  0  0  0  0  0  0  0  0  0
    3.9746   -3.5639   -3.4735 O   0  0  0  0  0  0  0  0  0  0  0  0
    1.5985   -3.1144   -1.7250 H   0  0  0  0  0  0  0  0  0  0  0  0
    2.4206   -2.7219   -0.2054 H   0  0  0  0  0  0  0  0  0  0  0  0
    1.1565   -1.6447   -0.8238 H   0  0  0  0  0  0  0  0  0  0  0  0
    1.1985    0.5103   -6.2851 H   0  0  0  0  0  0  0  0  0  0  0  0
    3.4001    0.7971   -1.1346 H   0  0  0  0  0  0  0  0  0  0  0  0
    2.6954    2.4014   -1.3014 H   0  0  0  0  0  0  0  0  0  0  0  0
    2.7520    1.7982    1.0768 H   0  0  0  0  0  0  0  0  0  0  0  0
    1.9576    0.2559    0.7565 H   0  0  0  0  0  0  0  0  0  0  0  0
    0.9433    2.2871    2.7541 H   0  0  0  0  0  0  0  0  0  0  0  0
   -1.3080    3.2951    3.1032 H   0  0  0  0  0  0  0  0  0  0  0  0
   -2.1941    2.7130   -1.1020 H   0  0  0  0  0  0  0  0  0  0  0  0
    0.2128    2.4932   -2.5057 H   0  0  0  0  0  0  0  0  0  0  0  0
   -0.6955    0.9964   -2.2681 H   0  0  0  0  0  0  0  0  0  0  0  0
    4.6816   -4.0471   -5.5310 H   0  0  0  0  0  0  0  0  0  0  0  0
  1  2  1  0  0  0  0
  1 27  1  0  0  0  0
  1 28  1  0  0  0  0
  1 29  1  0  0  0  0
  2  3  1  0  0  0  0
  3  4  1  0  0  0  0
  3  8  2  0  0  0  0
  4  5  2  0  0  0  0
  4 24  1  0  0  0  0
  5  6  1  0  0  0  0
  6  7  2  0  0  0  0
  6 30  1  0  0  0  0
  7  8  1  0  0  0  0
  8  9  1  0  0  0  0
  9 10  1  0  0  0  0
  9 23  1  0  0  0  0
 10 11  1  0  0  0  0
 10 31  1  0  0  0  0
 10 32  1  0  0  0  0
 11 12  1  0  0  0  0
 11 33  1  0  0  0  0
 11 34  1  0  0  0  0
 12 13  1  0  0  0  0
 12 22  2  0  0  0  0
 13 14  2  0  0  0  0
 13 35  1  0  0  0  0
 14 15  1  0  0  0  0
 14 36  1  0  0  0  0
 15 16  1  0  0  0  0
 15 21  2  0  0  0  0
 16 17  1  0  0  0  0
 17 18  1  0  0  0  0
 17 19  1  0  0  0  0
 17 20  1  0  0  0  0
 21 22  1  0  0  0  0
 21 37  1  0  0  0  0
 22 23  1  0  0  0  0
 23 38  1  0  0  0  0
 23 39  1  0  0  0  0
 24 25  1  0  0  0  0
 24 26  2  0  0  0  0
 25 40  1  0  0  0  0
M  END
> <Energy FFXML>
-28.84364722102755

> <SMILES QCArchive>
[H]c1c(c(c(c2c1C(C(N(C2([H])[H])c3c(c(nc(n3)[H])C(=O)O[H])OC([H])([H])[H])([H])[H])([H])[H])[H])OC(F)(F)F)[H]

> <Energy QCArchive>
-867908.0024187762

> <Record QCArchive>
36954898

> <final_energy>
-28.84364722102755

$$$$
