BRI-00226-04
  -OEChem-11282313333D

 60 63  0     1  0  0  0  0  0999 V2000
   -2.5576   -0.6434    8.4308 O   0  0  0  0  0  0  0  0  0  0  0  0
   -2.0688   -1.4142    7.4498 C   0  0  0  0  0  0  0  0  0  0  0  0
   -2.6628   -2.4051    7.0590 O   0  0  0  0  0  0  0  0  0  0  0  0
   -0.8515   -1.0586    6.8739 N   0  0  0  0  0  0  0  0  0  0  0  0
    0.0501   -0.0775    7.4883 C   0  0  0  0  0  0  0  0  0  0  0  0
    1.3621   -0.2066    6.6956 C   0  0  0  0  0  0  0  0  0  0  0  0
    1.2669   -1.5404    5.9236 C   0  0  0  0  0  0  0  0  0  0  0  0
   -0.2386   -1.8695    5.8113 C   0  0  2  0  0  0  0  0  0  0  0  0
   -0.3710   -2.9373    6.0212 H   0  0  0  0  0  0  0  0  0  0  0  0
   -0.8670   -1.5267    4.4546 C   0  0  0  0  0  0  0  0  0  0  0  0
   -0.4595   -0.4062    3.6932 C   0  0  0  0  0  0  0  0  0  0  0  0
   -1.0951   -0.1118    2.4717 C   0  0  0  0  0  0  0  0  0  0  0  0
   -2.1629   -0.9091    2.0175 C   0  0  0  0  0  0  0  0  0  0  0  0
   -2.6101   -2.0078    2.7881 C   0  0  0  0  0  0  0  0  0  0  0  0
   -1.9416   -2.3171    3.9966 C   0  0  0  0  0  0  0  0  0  0  0  0
   -3.7842   -2.8155    2.3421 C   0  0  0  0  0  0  0  0  0  0  0  0
   -4.1831   -2.6983    1.1904 O   0  0  0  0  0  0  0  0  0  0  0  0
   -4.4382   -3.6185    3.2754 N   0  0  0  0  0  0  0  0  0  0  0  0
   -5.5841   -4.4082    3.0853 C   0  0  0  0  0  0  0  0  0  0  0  0
   -5.9793   -4.9315    1.8320 C   0  0  0  0  0  0  0  0  0  0  0  0
   -7.1275   -5.7416    1.7285 C   0  0  0  0  0  0  0  0  0  0  0  0
   -7.8862   -6.0435    2.8770 C   0  0  0  0  0  0  0  0  0  0  0  0
   -9.1104   -6.9404    2.7715 C   0  0  0  0  0  0  0  0  0  0  0  0
   -8.7377   -8.4379    2.8517 C   0  0  0  0  0  0  0  0  0  0  0  0
   -8.3421   -8.8131    4.2466 N   0  0  0  0  0  0  0  0  0  0  0  0
   -6.8668   -8.9461    4.4661 C   0  0  0  0  0  0  0  0  0  0  0  0
   -6.3593  -10.3455    4.0242 C   0  0  0  0  0  0  0  0  0  0  0  0
   -7.1340  -11.4135    4.6439 O   0  0  0  0  0  0  0  0  0  0  0  0
   -8.5616  -11.3087    4.3740 C   0  0  0  0  0  0  0  0  0  0  0  0
   -9.1200   -9.9396    4.8446 C   0  0  0  0  0  0  0  0  0  0  0  0
   -7.4817   -5.5460    4.1311 C   0  0  0  0  0  0  0  0  0  0  0  0
   -6.3340   -4.7358    4.2322 C   0  0  0  0  0  0  0  0  0  0  0  0
   -1.9934    0.1209    8.5629 H   0  0  0  0  0  0  0  0  0  0  0  0
   -0.3495    0.9380    7.4019 H   0  0  0  0  0  0  0  0  0  0  0  0
    0.2295   -0.3269    8.5396 H   0  0  0  0  0  0  0  0  0  0  0  0
    2.2274   -0.2008    7.3650 H   0  0  0  0  0  0  0  0  0  0  0  0
    1.4567    0.6280    5.9957 H   0  0  0  0  0  0  0  0  0  0  0  0
    1.7649   -2.3279    6.4969 H   0  0  0  0  0  0  0  0  0  0  0  0
    1.7491   -1.4778    4.9438 H   0  0  0  0  0  0  0  0  0  0  0  0
    0.3433    0.2433    4.0288 H   0  0  0  0  0  0  0  0  0  0  0  0
   -0.7718    0.7425    1.8803 H   0  0  0  0  0  0  0  0  0  0  0  0
   -2.6592   -0.6635    1.0785 H   0  0  0  0  0  0  0  0  0  0  0  0
   -2.2521   -3.1637    4.6062 H   0  0  0  0  0  0  0  0  0  0  0  0
   -4.1454   -3.4607    4.2335 H   0  0  0  0  0  0  0  0  0  0  0  0
   -5.4098   -4.7359    0.9282 H   0  0  0  0  0  0  0  0  0  0  0  0
   -7.4198   -6.1348    0.7574 H   0  0  0  0  0  0  0  0  0  0  0  0
   -9.8223   -6.6994    3.5661 H   0  0  0  0  0  0  0  0  0  0  0  0
   -9.6179   -6.7476    1.8225 H   0  0  0  0  0  0  0  0  0  0  0  0
   -7.9311   -8.6573    2.1452 H   0  0  0  0  0  0  0  0  0  0  0  0
   -9.6008   -9.0301    2.5329 H   0  0  0  0  0  0  0  0  0  0  0  0
   -6.6458   -8.8040    5.5280 H   0  0  0  0  0  0  0  0  0  0  0  0
   -6.3226   -8.1703    3.9200 H   0  0  0  0  0  0  0  0  0  0  0  0
   -5.3064  -10.4521    4.2986 H   0  0  0  0  0  0  0  0  0  0  0  0
   -6.4213  -10.4300    2.9357 H   0  0  0  0  0  0  0  0  0  0  0  0
   -8.7449  -11.4307    3.3027 H   0  0  0  0  0  0  0  0  0  0  0  0
   -9.0905  -12.1140    4.8906 H   0  0  0  0  0  0  0  0  0  0  0  0
   -9.0550   -9.8836    5.9354 H   0  0  0  0  0  0  0  0  0  0  0  0
  -10.1794   -9.8580    4.5838 H   0  0  0  0  0  0  0  0  0  0  0  0
   -8.0500   -5.8031    5.0232 H   0  0  0  0  0  0  0  0  0  0  0  0
   -6.0341   -4.3624    5.2084 H   0  0  0  0  0  0  0  0  0  0  0  0
  1  2  1  0  0  0  0
  1 33  1  0  0  0  0
  2  3  2  0  0  0  0
  2  4  1  0  0  0  0
  4  5  1  0  0  0  0
  4  8  1  0  0  0  0
  5  6  1  0  0  0  0
  5 34  1  0  0  0  0
  5 35  1  0  0  0  0
  6  7  1  0  0  0  0
  6 36  1  0  0  0  0
  6 37  1  0  0  0  0
  7  8  1  0  0  0  0
  7 38  1  0  0  0  0
  7 39  1  0  0  0  0
  8  9  1  0  0  0  0
  8 10  1  0  0  0  0
 10 11  1  0  0  0  0
 10 15  2  0  0  0  0
 11 12  2  0  0  0  0
 11 40  1  0  0  0  0
 12 13  1  0  0  0  0
 12 41  1  0  0  0  0
 13 14  2  0  0  0  0
 13 42  1  0  0  0  0
 14 15  1  0  0  0  0
 14 16  1  0  0  0  0
 15 43  1  0  0  0  0
 16 17  2  0  0  0  0
 16 18  1  0  0  0  0
 18 19  1  0  0  0  0
 18 44  1  0  0  0  0
 19 20  1  0  0  0  0
 19 32  2  0  0  0  0
 20 21  2  0  0  0  0
 20 45  1  0  0  0  0
 21 22  1  0  0  0  0
 21 46  1  0  0  0  0
 22 23  1  0  0  0  0
 22 31  2  0  0  0  0
 23 24  1  0  0  0  0
 23 47  1  0  0  0  0
 23 48  1  0  0  0  0
 24 25  1  0  0  0  0
 24 49  1  0  0  0  0
 24 50  1  0  0  0  0
 25 26  1  0  0  0  0
 25 30  1  0  0  0  0
 26 27  1  0  0  0  0
 26 51  1  0  0  0  0
 26 52  1  0  0  0  0
 27 28  1  0  0  0  0
 27 53  1  0  0  0  0
 27 54  1  0  0  0  0
 28 29  1  0  0  0  0
 29 30  1  0  0  0  0
 29 55  1  0  0  0  0
 29 56  1  0  0  0  0
 30 57  1  0  0  0  0
 30 58  1  0  0  0  0
 31 32  1  0  0  0  0
 31 59  1  0  0  0  0
 32 60  1  0  0  0  0
M  END
> <Energy FFXML>
-20.409411649112194

> <SMILES QCArchive>
[H]c1c(c(c(c(c1[H])[C@]2(C(C(C(N2C(=O)O[H])([H])[H])([H])[H])([H])[H])[H])[H])C(=O)N([H])c3c(c(c(c(c3[H])[H])C([H])([H])C([H])([H])N4C(C(OC(C4([H])[H])([H])[H])([H])[H])([H])[H])[H])[H])[H]

> <Energy QCArchive>
-876921.5488327091

> <Record QCArchive>
36954850

> <final_energy>
-20.409411649112194

$$$$
