BRI-00505-01
  -OEChem-11282313333D

 34 36  0     0  0  0  0  0  0999 V2000
    4.2359    3.0060    0.1420 C   0  0  0  0  0  0  0  0  0  0  0  0
    2.9330    3.7065    0.0956 N   0  0  0  0  0  0  0  0  0  0  0  0
    2.7831    5.0767    0.1916 C   0  0  0  0  0  0  0  0  0  0  0  0
    1.5275    5.4253    0.0182 N   0  0  0  0  0  0  0  0  0  0  0  0
    0.8401    4.2178   -0.1968 C   0  0  0  0  0  0  0  0  0  0  0  0
   -0.6571    4.2258   -0.4036 C   0  0  0  0  0  0  0  0  0  0  0  0
    1.6966    3.1415   -0.1436 C   0  0  0  0  0  0  0  0  0  0  0  0
    1.3514    1.7086   -0.3281 C   0  0  0  0  0  0  0  0  0  0  0  0
    2.0331    0.6638    0.1923 C   0  0  0  0  0  0  0  0  0  0  0  0
    1.3602   -0.4415   -0.2405 N   0  0  0  0  0  0  0  0  0  0  0  0
    0.2843   -0.0787   -1.0170 N   0  0  0  0  0  0  0  0  0  0  0  0
    0.2706    1.2289   -1.0762 N   0  0  0  0  0  0  0  0  0  0  0  0
    1.6986   -1.7838    0.0533 C   0  0  0  0  0  0  0  0  0  0  0  0
    2.8217   -2.1041    0.8555 C   0  0  0  0  0  0  0  0  0  0  0  0
    3.1369   -3.4465    1.1393 C   0  0  0  0  0  0  0  0  0  0  0  0
    2.3437   -4.4879    0.6231 C   0  0  0  0  0  0  0  0  0  0  0  0
    1.2231   -4.1925   -0.1902 C   0  0  0  0  0  0  0  0  0  0  0  0
    0.9040   -2.8381   -0.4599 C   0  0  0  0  0  0  0  0  0  0  0  0
    0.3699   -5.2843   -0.7474 C   0  0  0  0  0  0  0  0  0  0  0  0
    0.8542   -6.5446   -0.8050 O   0  0  0  0  0  0  0  0  0  0  0  0
   -0.7383   -5.0171   -1.1826 O   0  0  0  0  0  0  0  0  0  0  0  0
    4.3090    2.2832   -0.6757 H   0  0  0  0  0  0  0  0  0  0  0  0
    4.3628    2.4976    1.1013 H   0  0  0  0  0  0  0  0  0  0  0  0
    5.0553    3.7205    0.0204 H   0  0  0  0  0  0  0  0  0  0  0  0
    3.5938    5.7775    0.3807 H   0  0  0  0  0  0  0  0  0  0  0  0
   -0.8933    4.6199   -1.3949 H   0  0  0  0  0  0  0  0  0  0  0  0
   -1.0840    3.2274   -0.3060 H   0  0  0  0  0  0  0  0  0  0  0  0
   -1.1283    4.8662    0.3460 H   0  0  0  0  0  0  0  0  0  0  0  0
    2.9055    0.7137    0.8278 H   0  0  0  0  0  0  0  0  0  0  0  0
    3.4598   -1.3322    1.2760 H   0  0  0  0  0  0  0  0  0  0  0  0
    3.9951   -3.6783    1.7684 H   0  0  0  0  0  0  0  0  0  0  0  0
    2.6045   -5.5106    0.8875 H   0  0  0  0  0  0  0  0  0  0  0  0
    0.0322   -2.6115   -1.0757 H   0  0  0  0  0  0  0  0  0  0  0  0
    1.7814   -6.5704   -0.5545 H   0  0  0  0  0  0  0  0  0  0  0  0
  1  2  1  0  0  0  0
  1 22  1  0  0  0  0
  1 23  1  0  0  0  0
  1 24  1  0  0  0  0
  2  3  1  0  0  0  0
  2  7  1  0  0  0  0
  3  4  2  0  0  0  0
  3 25  1  0  0  0  0
  4  5  1  0  0  0  0
  5  6  1  0  0  0  0
  5  7  2  0  0  0  0
  6 26  1  0  0  0  0
  6 27  1  0  0  0  0
  6 28  1  0  0  0  0
  7  8  1  0  0  0  0
  8  9  2  0  0  0  0
  8 12  1  0  0  0  0
  9 10  1  0  0  0  0
  9 29  1  0  0  0  0
 10 11  1  0  0  0  0
 10 13  1  0  0  0  0
 11 12  2  0  0  0  0
 13 14  1  0  0  0  0
 13 18  2  0  0  0  0
 14 15  2  0  0  0  0
 14 30  1  0  0  0  0
 15 16  1  0  0  0  0
 15 31  1  0  0  0  0
 16 17  2  0  0  0  0
 16 32  1  0  0  0  0
 17 18  1  0  0  0  0
 17 19  1  0  0  0  0
 18 33  1  0  0  0  0
 19 20  1  0  0  0  0
 19 21  2  0  0  0  0
 20 34  1  0  0  0  0
M  END
> <Energy FFXML>
-1.701092948048062

> <SMILES QCArchive>
[H]c1c(c(c(c(c1[H])N2C(=C(N=N2)C3=C(N=C(N3C([H])([H])[H])[H])C([H])([H])[H])[H])[H])C(=O)O[H])[H]

> <Energy QCArchive>
-605967.5039470758

> <Record QCArchive>
36954931

> <final_energy>
-1.701092948048062

$$$$
