BRI-01347-01
  -OEChem-11282313333D

 46 46  0     1  0  0  0  0  0999 V2000
   -8.0545    0.3506   10.0178 C   0  0  0  0  0  0  0  0  0  0  0  0
   -6.9028    0.8152    9.1066 C   0  0  0  0  0  0  0  0  0  0  0  0
   -7.1697    0.4045    7.6410 C   0  0  0  0  0  0  0  0  0  0  0  0
   -6.0171    0.8736    6.7251 C   0  0  0  0  0  0  0  0  0  0  0  0
   -6.2336    0.4242    5.3567 O   0  0  0  0  0  0  0  0  0  0  0  0
   -7.0427    1.2143    4.5829 C   0  0  0  0  0  0  0  0  0  0  0  0
   -7.6197    2.2088    5.0143 O   0  0  0  0  0  0  0  0  0  0  0  0
   -7.1813    0.7777    3.2912 O   0  0  0  0  0  0  0  0  0  0  0  0
   -7.9810    1.6208    2.4110 C   0  0  0  0  0  0  0  0  0  0  0  0
   -7.1845    2.8554    1.9192 C   0  0  0  0  0  0  0  0  0  0  0  0
   -5.9014    2.4336    1.1556 C   0  0  0  0  0  0  0  0  0  0  0  0
   -5.0576    3.6615    0.7191 C   0  0  2  0  0  0  0  0  0  0  0  0
   -5.6989    4.3772   -0.4863 C   0  0  0  0  0  0  0  0  0  0  0  0
   -3.7417    3.2071    0.2905 O   0  0  0  0  0  0  0  0  0  0  0  0
   -2.7826    3.1158    1.2743 C   0  0  0  0  0  0  0  0  0  0  0  0
   -2.9853    3.3601    2.4596 O   0  0  0  0  0  0  0  0  0  0  0  0
   -1.4142    2.6703    0.8702 C   0  0  0  0  0  0  0  0  0  0  0  0
   -1.1335    2.3689   -0.4853 C   0  0  0  0  0  0  0  0  0  0  0  0
    0.1563    1.9485   -0.8678 C   0  0  0  0  0  0  0  0  0  0  0  0
    1.1725    1.8258    0.0960 C   0  0  0  0  0  0  0  0  0  0  0  0
    2.7685    1.3046   -0.3826 Cl  0  0  0  0  0  0  0  0  0  0  0  0
    0.9058    2.1214    1.4442 C   0  0  0  0  0  0  0  0  0  0  0  0
   -0.3816    2.5423    1.8335 C   0  0  0  0  0  0  0  0  0  0  0  0
   -8.9984    0.8038    9.7010 H   0  0  0  0  0  0  0  0  0  0  0  0
   -8.1559   -0.7379    9.9806 H   0  0  0  0  0  0  0  0  0  0  0  0
   -7.8579    0.6458   11.0523 H   0  0  0  0  0  0  0  0  0  0  0  0
   -5.9639    0.3712    9.4515 H   0  0  0  0  0  0  0  0  0  0  0  0
   -6.8026    1.9030    9.1733 H   0  0  0  0  0  0  0  0  0  0  0  0
   -8.1123    0.8454    7.3035 H   0  0  0  0  0  0  0  0  0  0  0  0
   -7.2660   -0.6832    7.5736 H   0  0  0  0  0  0  0  0  0  0  0  0
   -5.8995    1.9616    6.7785 H   0  0  0  0  0  0  0  0  0  0  0  0
   -5.0788    0.4430    7.0868 H   0  0  0  0  0  0  0  0  0  0  0  0
   -8.9069    1.9395    2.9020 H   0  0  0  0  0  0  0  0  0  0  0  0
   -8.2857    1.0287    1.5431 H   0  0  0  0  0  0  0  0  0  0  0  0
   -7.8275    3.4512    1.2669 H   0  0  0  0  0  0  0  0  0  0  0  0
   -6.9171    3.4854    2.7728 H   0  0  0  0  0  0  0  0  0  0  0  0
   -5.2917    1.7994    1.8061 H   0  0  0  0  0  0  0  0  0  0  0  0
   -6.1665    1.8335    0.2803 H   0  0  0  0  0  0  0  0  0  0  0  0
   -4.9822    4.3795    1.5443 H   0  0  0  0  0  0  0  0  0  0  0  0
   -5.0494    5.1881   -0.8275 H   0  0  0  0  0  0  0  0  0  0  0  0
   -6.6640    4.8094   -0.2114 H   0  0  0  0  0  0  0  0  0  0  0  0
   -5.8458    3.6779   -1.3140 H   0  0  0  0  0  0  0  0  0  0  0  0
   -1.9096    2.4580   -1.2446 H   0  0  0  0  0  0  0  0  0  0  0  0
    0.3739    1.7164   -1.9080 H   0  0  0  0  0  0  0  0  0  0  0  0
    1.6982    2.0228    2.1828 H   0  0  0  0  0  0  0  0  0  0  0  0
   -0.5760    2.7677    2.8820 H   0  0  0  0  0  0  0  0  0  0  0  0
  1  2  1  0  0  0  0
  1 24  1  0  0  0  0
  1 25  1  0  0  0  0
  1 26  1  0  0  0  0
  2  3  1  0  0  0  0
  2 27  1  0  0  0  0
  2 28  1  0  0  0  0
  3  4  1  0  0  0  0
  3 29  1  0  0  0  0
  3 30  1  0  0  0  0
  4  5  1  0  0  0  0
  4 31  1  0  0  0  0
  4 32  1  0  0  0  0
  5  6  1  0  0  0  0
  6  7  2  0  0  0  0
  6  8  1  0  0  0  0
  8  9  1  0  0  0  0
  9 10  1  0  0  0  0
  9 33  1  0  0  0  0
  9 34  1  0  0  0  0
 10 11  1  0  0  0  0
 10 35  1  0  0  0  0
 10 36  1  0  0  0  0
 11 12  1  0  0  0  0
 11 37  1  0  0  0  0
 11 38  1  0  0  0  0
 12 13  1  0  0  0  0
 12 14  1  0  0  0  0
 12 39  1  0  0  0  0
 13 40  1  0  0  0  0
 13 41  1  0  0  0  0
 13 42  1  0  0  0  0
 14 15  1  0  0  0  0
 15 16  2  0  0  0  0
 15 17  1  0  0  0  0
 17 18  1  0  0  0  0
 17 23  2  0  0  0  0
 18 19  2  0  0  0  0
 18 43  1  0  0  0  0
 19 20  1  0  0  0  0
 19 44  1  0  0  0  0
 20 21  1  0  0  0  0
 20 22  2  0  0  0  0
 22 23  1  0  0  0  0
 22 45  1  0  0  0  0
 23 46  1  0  0  0  0
M  END
> <Energy FFXML>
-19.599163405334846

> <SMILES QCArchive>
[H]c1c(c(c(c(c1C(=O)O[C@@]([H])(C([H])([H])[H])C([H])([H])C([H])([H])C([H])([H])OC(=O)OC([H])([H])C([H])([H])C([H])([H])C([H])([H])[H])[H])[H])Cl)[H]

> <Energy QCArchive>
-940139.7456918852

> <Record QCArchive>
36954921

> <final_energy>
-19.599163405334846

$$$$
