BRI-01347-08
  -OEChem-11282313333D

 46 46  0     1  0  0  0  0  0999 V2000
   -5.9000   -1.3010    8.2702 C   0  0  0  0  0  0  0  0  0  0  0  0
   -5.6628    0.0972    7.6694 C   0  0  0  0  0  0  0  0  0  0  0  0
   -7.0098    0.8126    7.4068 C   0  0  0  0  0  0  0  0  0  0  0  0
   -6.7928    2.2477    6.8674 C   0  0  0  0  0  0  0  0  0  0  0  0
   -6.0355    2.2439    5.6211 O   0  0  0  0  0  0  0  0  0  0  0  0
   -6.7464    1.9655    4.4838 C   0  0  0  0  0  0  0  0  0  0  0  0
   -7.9559    1.7552    4.4839 O   0  0  0  0  0  0  0  0  0  0  0  0
   -5.9859    1.9410    3.3462 O   0  0  0  0  0  0  0  0  0  0  0  0
   -6.6958    1.6619    2.1021 C   0  0  0  0  0  0  0  0  0  0  0  0
   -7.4417    2.9096    1.5550 C   0  0  0  0  0  0  0  0  0  0  0  0
   -6.5655    4.2001    1.4699 C   0  0  0  0  0  0  0  0  0  0  0  0
   -5.3756    4.1482    0.4663 C   0  0  2  0  0  0  0  0  0  0  0  0
   -5.8282    3.7250   -0.9483 C   0  0  0  0  0  0  0  0  0  0  0  0
   -4.3737    3.2200    0.9644 O   0  0  0  0  0  0  0  0  0  0  0  0
   -3.0639    3.5243    0.6851 C   0  0  0  0  0  0  0  0  0  0  0  0
   -2.7118    4.3950   -0.1048 O   0  0  0  0  0  0  0  0  0  0  0  0
   -2.0107    2.6927    1.3414 C   0  0  0  0  0  0  0  0  0  0  0  0
   -2.3692    1.7416    2.3289 C   0  0  0  0  0  0  0  0  0  0  0  0
   -1.3785    0.9583    2.9537 C   0  0  0  0  0  0  0  0  0  0  0  0
   -0.0271    1.1175    2.6001 C   0  0  0  0  0  0  0  0  0  0  0  0
    1.1969    0.1449    3.3770 Cl  0  0  0  0  0  0  0  0  0  0  0  0
    0.3408    2.0604    1.6240 C   0  0  0  0  0  0  0  0  0  0  0  0
   -0.6448    2.8481    0.9960 C   0  0  0  0  0  0  0  0  0  0  0  0
   -6.4330   -1.2228    9.2222 H   0  0  0  0  0  0  0  0  0  0  0  0
   -4.9436   -1.8007    8.4480 H   0  0  0  0  0  0  0  0  0  0  0  0
   -6.4903   -1.9157    7.5846 H   0  0  0  0  0  0  0  0  0  0  0  0
   -5.1045   -0.0012    6.7333 H   0  0  0  0  0  0  0  0  0  0  0  0
   -5.0551    0.6916    8.3583 H   0  0  0  0  0  0  0  0  0  0  0  0
   -7.5831    0.8654    8.3368 H   0  0  0  0  0  0  0  0  0  0  0  0
   -7.6045    0.2342    6.6936 H   0  0  0  0  0  0  0  0  0  0  0  0
   -7.7555    2.7562    6.7471 H   0  0  0  0  0  0  0  0  0  0  0  0
   -6.2365    2.8241    7.6122 H   0  0  0  0  0  0  0  0  0  0  0  0
   -7.4006    0.8334    2.2303 H   0  0  0  0  0  0  0  0  0  0  0  0
   -5.9766    1.3179    1.3545 H   0  0  0  0  0  0  0  0  0  0  0  0
   -7.8639    2.6765    0.5746 H   0  0  0  0  0  0  0  0  0  0  0  0
   -8.2978    3.1162    2.2034 H   0  0  0  0  0  0  0  0  0  0  0  0
   -7.2134    5.0361    1.1914 H   0  0  0  0  0  0  0  0  0  0  0  0
   -6.1787    4.4425    2.4642 H   0  0  0  0  0  0  0  0  0  0  0  0
   -4.9660    5.1637    0.4124 H   0  0  0  0  0  0  0  0  0  0  0  0
   -5.0184    3.8887   -1.6646 H   0  0  0  0  0  0  0  0  0  0  0  0
   -6.6904    4.3171   -1.2667 H   0  0  0  0  0  0  0  0  0  0  0  0
   -6.0934    2.6650   -0.9695 H   0  0  0  0  0  0  0  0  0  0  0  0
   -3.4107    1.6098    2.6215 H   0  0  0  0  0  0  0  0  0  0  0  0
   -1.6538    0.2301    3.7134 H   0  0  0  0  0  0  0  0  0  0  0  0
    1.3892    2.1778    1.3590 H   0  0  0  0  0  0  0  0  0  0  0  0
   -0.3479    3.5770    0.2420 H   0  0  0  0  0  0  0  0  0  0  0  0
  1  2  1  0  0  0  0
  1 24  1  0  0  0  0
  1 25  1  0  0  0  0
  1 26  1  0  0  0  0
  2  3  1  0  0  0  0
  2 27  1  0  0  0  0
  2 28  1  0  0  0  0
  3  4  1  0  0  0  0
  3 29  1  0  0  0  0
  3 30  1  0  0  0  0
  4  5  1  0  0  0  0
  4 31  1  0  0  0  0
  4 32  1  0  0  0  0
  5  6  1  0  0  0  0
  6  7  2  0  0  0  0
  6  8  1  0  0  0  0
  8  9  1  0  0  0  0
  9 10  1  0  0  0  0
  9 33  1  0  0  0  0
  9 34  1  0  0  0  0
 10 11  1  0  0  0  0
 10 35  1  0  0  0  0
 10 36  1  0  0  0  0
 11 12  1  0  0  0  0
 11 37  1  0  0  0  0
 11 38  1  0  0  0  0
 12 13  1  0  0  0  0
 12 14  1  0  0  0  0
 12 39  1  0  0  0  0
 13 40  1  0  0  0  0
 13 41  1  0  0  0  0
 13 42  1  0  0  0  0
 14 15  1  0  0  0  0
 15 16  2  0  0  0  0
 15 17  1  0  0  0  0
 17 18  1  0  0  0  0
 17 23  2  0  0  0  0
 18 19  2  0  0  0  0
 18 43  1  0  0  0  0
 19 20  1  0  0  0  0
 19 44  1  0  0  0  0
 20 21  1  0  0  0  0
 20 22  2  0  0  0  0
 22 23  1  0  0  0  0
 22 45  1  0  0  0  0
 23 46  1  0  0  0  0
M  END
> <Energy FFXML>
-20.77564700669897

> <SMILES QCArchive>
[H]c1c(c(c(c(c1C(=O)O[C@@]([H])(C([H])([H])[H])C([H])([H])C([H])([H])C([H])([H])OC(=O)OC([H])([H])C([H])([H])C([H])([H])C([H])([H])[H])[H])[H])Cl)[H]

> <Energy QCArchive>
-940141.2825743362

> <Record QCArchive>
36954928

> <final_energy>
-20.77564700669897

$$$$
