BRI-01064-00
  -OEChem-11282313333D

 57 58  0     1  0  0  0  0  0999 V2000
    0.2802    1.5573    1.7080 C   0  0  0  0  0  0  0  0  0  0  0  0
   -0.4418    0.4967    0.8567 C   0  0  0  0  0  0  0  0  0  0  0  0
   -0.0175    0.6168   -0.6314 C   0  0  0  0  0  0  0  0  0  0  0  0
   -0.8341   -0.3152   -1.5889 C   0  0  1  0  0  0  0  0  0  0  0  0
   -0.4685   -0.1451   -2.6061 H   0  0  0  0  0  0  0  0  0  0  0  0
   -0.5328   -1.8113   -1.2713 C   0  0  0  0  0  0  0  0  0  0  0  0
    0.9577   -2.1226   -1.3276 C   0  0  0  0  0  0  0  0  0  0  0  0
    1.5266   -1.9733   -2.4022 O   0  0  0  0  0  0  0  0  0  0  0  0
    1.5605   -2.5012   -0.1562 O   0  0  0  0  0  0  0  0  0  0  0  0
    3.0005   -2.7021   -0.2236 C   0  0  0  0  0  0  0  0  0  0  0  0
    3.7374   -1.3558   -0.0988 C   0  0  0  0  0  0  0  0  0  0  0  0
   -2.3255    0.0431   -1.5139 N   0  0  2  0  0  0  0  0  0  0  0  0
   -3.3231   -1.0845   -1.6450 C   0  0  0  0  0  0  0  0  0  0  0  0
   -4.6816   -0.7004   -1.0735 C   0  0  0  0  0  0  0  0  0  0  0  0
   -5.8174   -0.6270   -1.9093 C   0  0  0  0  0  0  0  0  0  0  0  0
   -7.0696   -0.2745   -1.3681 C   0  0  0  0  0  0  0  0  0  0  0  0
   -7.1907    0.0027    0.0077 C   0  0  0  0  0  0  0  0  0  0  0  0
   -6.0598   -0.0720    0.8439 C   0  0  0  0  0  0  0  0  0  0  0  0
   -4.8076   -0.4246    0.3042 C   0  0  0  0  0  0  0  0  0  0  0  0
   -2.7669    1.3388   -2.1846 C   0  0  1  0  0  0  0  0  0  0  0  0
   -3.7541    1.1745   -2.6248 H   0  0  0  0  0  0  0  0  0  0  0  0
   -2.9759    2.4373   -1.1161 C   0  0  0  0  0  0  0  0  0  0  0  0
   -1.8803    1.7827   -3.3625 C   0  0  0  0  0  0  0  0  0  0  0  0
   -1.9692    1.0667   -4.5776 C   0  0  0  0  0  0  0  0  0  0  0  0
   -1.1692    1.4242   -5.6797 C   0  0  0  0  0  0  0  0  0  0  0  0
   -0.2727    2.5036   -5.5778 C   0  0  0  0  0  0  0  0  0  0  0  0
   -0.1761    3.2252   -4.3736 C   0  0  0  0  0  0  0  0  0  0  0  0
   -0.9747    2.8692   -3.2691 C   0  0  0  0  0  0  0  0  0  0  0  0
    1.3641    1.4289    1.6377 H   0  0  0  0  0  0  0  0  0  0  0  0
    0.0203    2.5631    1.3658 H   0  0  0  0  0  0  0  0  0  0  0  0
   -0.0141    1.4608    2.7567 H   0  0  0  0  0  0  0  0  0  0  0  0
   -1.5227    0.6320    0.9526 H   0  0  0  0  0  0  0  0  0  0  0  0
   -0.1951   -0.4974    1.2385 H   0  0  0  0  0  0  0  0  0  0  0  0
   -0.1263    1.6508   -0.9554 H   0  0  0  0  0  0  0  0  0  0  0  0
    1.0512    0.4078   -0.7213 H   0  0  0  0  0  0  0  0  0  0  0  0
   -0.9144   -2.0727   -0.2829 H   0  0  0  0  0  0  0  0  0  0  0  0
   -1.0294   -2.4553   -1.9990 H   0  0  0  0  0  0  0  0  0  0  0  0
    3.2944   -3.2157   -1.1454 H   0  0  0  0  0  0  0  0  0  0  0  0
    3.3039   -3.3483    0.6051 H   0  0  0  0  0  0  0  0  0  0  0  0
    3.4431   -0.8485    0.8240 H   0  0  0  0  0  0  0  0  0  0  0  0
    3.5026   -0.7093   -0.9488 H   0  0  0  0  0  0  0  0  0  0  0  0
    4.8178   -1.5204   -0.0790 H   0  0  0  0  0  0  0  0  0  0  0  0
   -3.4212   -1.3699   -2.6967 H   0  0  0  0  0  0  0  0  0  0  0  0
   -3.0006   -1.9725   -1.1005 H   0  0  0  0  0  0  0  0  0  0  0  0
   -5.7310   -0.8370   -2.9731 H   0  0  0  0  0  0  0  0  0  0  0  0
   -7.9439   -0.2155   -2.0133 H   0  0  0  0  0  0  0  0  0  0  0  0
   -8.1580    0.2758    0.4247 H   0  0  0  0  0  0  0  0  0  0  0  0
   -6.1514    0.1446    1.9062 H   0  0  0  0  0  0  0  0  0  0  0  0
   -3.9278   -0.4744    0.9428 H   0  0  0  0  0  0  0  0  0  0  0  0
   -2.0581    2.6428   -0.5652 H   0  0  0  0  0  0  0  0  0  0  0  0
   -3.7341    2.1183   -0.3975 H   0  0  0  0  0  0  0  0  0  0  0  0
   -3.3243    3.3610   -1.5855 H   0  0  0  0  0  0  0  0  0  0  0  0
   -2.6537    0.2252   -4.6583 H   0  0  0  0  0  0  0  0  0  0  0  0
   -1.2410    0.8627   -6.6089 H   0  0  0  0  0  0  0  0  0  0  0  0
    0.3475    2.7781   -6.4288 H   0  0  0  0  0  0  0  0  0  0  0  0
    0.5194    4.0583   -4.2953 H   0  0  0  0  0  0  0  0  0  0  0  0
   -0.8700    3.4458   -2.3541 H   0  0  0  0  0  0  0  0  0  0  0  0
  1  2  1  0  0  0  0
  1 29  1  0  0  0  0
  1 30  1  0  0  0  0
  1 31  1  0  0  0  0
  2  3  1  0  0  0  0
  2 32  1  0  0  0  0
  2 33  1  0  0  0  0
  3  4  1  0  0  0  0
  3 34  1  0  0  0  0
  3 35  1  0  0  0  0
  4  5  1  0  0  0  0
  4  6  1  0  0  0  0
  4 12  1  0  0  0  0
  6  7  1  0  0  0  0
  6 36  1  0  0  0  0
  6 37  1  0  0  0  0
  7  8  2  0  0  0  0
  7  9  1  0  0  0  0
  9 10  1  0  0  0  0
 10 11  1  0  0  0  0
 10 38  1  0  0  0  0
 10 39  1  0  0  0  0
 11 40  1  0  0  0  0
 11 41  1  0  0  0  0
 11 42  1  0  0  0  0
 12 13  1  0  0  0  0
 12 20  1  0  0  0  0
 13 14  1  0  0  0  0
 13 43  1  0  0  0  0
 13 44  1  0  0  0  0
 14 15  1  0  0  0  0
 14 19  2  0  0  0  0
 15 16  2  0  0  0  0
 15 45  1  0  0  0  0
 16 17  1  0  0  0  0
 16 46  1  0  0  0  0
 17 18  2  0  0  0  0
 17 47  1  0  0  0  0
 18 19  1  0  0  0  0
 18 48  1  0  0  0  0
 19 49  1  0  0  0  0
 20 21  1  0  0  0  0
 20 22  1  0  0  0  0
 20 23  1  0  0  0  0
 22 50  1  0  0  0  0
 22 51  1  0  0  0  0
 22 52  1  0  0  0  0
 23 24  1  0  0  0  0
 23 28  2  0  0  0  0
 24 25  2  0  0  0  0
 24 53  1  0  0  0  0
 25 26  1  0  0  0  0
 25 54  1  0  0  0  0
 26 27  2  0  0  0  0
 26 55  1  0  0  0  0
 27 28  1  0  0  0  0
 27 56  1  0  0  0  0
 28 57  1  0  0  0  0
M  END
> <Energy FFXML>
-13.416439230847018

> <SMILES QCArchive>
[H]c1c(c(c(c(c1[H])[H])[C@]([H])(C([H])([H])[H])N([C@]([H])(C([H])([H])C(=O)OC([H])([H])C([H])([H])[H])C([H])([H])C([H])([H])C([H])([H])[H])C([H])([H])c2c(c(c(c(c2[H])[H])[H])[H])[H])[H])[H]

> <Energy QCArchive>
-690600.3756232619

> <Record QCArchive>
36954887

> <final_energy>
-13.416439230847018

$$$$
