BRI-01356-06
  -OEChem-11282313333D

 43 44  0     0  0  0  0  0  0999 V2000
   -3.3915    3.7739    0.4566 N   0  0  0  0  0  0  0  0  0  0  0  0
   -2.4252    4.2286   -0.3858 C   0  0  0  0  0  0  0  0  0  0  0  0
   -2.7632    5.1111   -1.1559 O   0  0  0  0  0  0  0  0  0  0  0  0
   -1.0465    3.6647   -0.3896 C   0  0  0  0  0  0  0  0  0  0  0  0
   -0.1190    4.0782   -1.3725 C   0  0  0  0  0  0  0  0  0  0  0  0
    1.1858    3.5486   -1.3874 C   0  0  0  0  0  0  0  0  0  0  0  0
    1.5878    2.5977   -0.4313 C   0  0  0  0  0  0  0  0  0  0  0  0
    2.9116    2.1373   -0.5136 N   0  0  0  0  0  0  0  0  0  0  0  0
    3.4971    1.0337    0.0989 C   0  0  0  0  0  0  0  0  0  0  0  0
    2.8812    0.2590    0.8183 O   0  0  0  0  0  0  0  0  0  0  0  0
    4.9831    0.7252   -0.2392 C   0  0  0  0  0  0  0  0  0  0  0  0
    5.7096    1.9008   -0.8745 N   0  0  0  0  0  0  0  0  0  0  0  0
    6.0694    2.9952    0.0876 C   0  0  0  0  0  0  0  0  0  0  0  0
    6.9765    4.0345   -0.5957 C   0  0  0  0  0  0  0  0  0  0  0  0
    8.3108    3.3989   -1.0692 C   0  0  0  0  0  0  0  0  0  0  0  0
    8.1795    1.8747   -1.3179 C   0  0  0  0  0  0  0  0  0  0  0  0
    6.7807    1.5279   -1.8608 C   0  0  0  0  0  0  0  0  0  0  0  0
    9.3525    3.6307   -0.0499 N   0  0  0  0  0  0  0  0  0  0  0  0
   10.6530    3.9249   -0.3622 C   0  0  0  0  0  0  0  0  0  0  0  0
   11.5241    3.9862    0.6405 O   0  0  0  0  0  0  0  0  0  0  0  0
   11.0080    4.0968   -1.5138 O   0  0  0  0  0  0  0  0  0  0  0  0
    0.6683    2.1978    0.5652 C   0  0  0  0  0  0  0  0  0  0  0  0
   -0.6391    2.7228    0.5846 C   0  0  0  0  0  0  0  0  0  0  0  0
   -3.2421    2.9194    0.9774 H   0  0  0  0  0  0  0  0  0  0  0  0
   -4.3220    4.1346    0.2730 H   0  0  0  0  0  0  0  0  0  0  0  0
   -0.4126    4.8096   -2.1257 H   0  0  0  0  0  0  0  0  0  0  0  0
    1.8804    3.8801   -2.1548 H   0  0  0  0  0  0  0  0  0  0  0  0
    3.5525    2.6039   -1.1509 H   0  0  0  0  0  0  0  0  0  0  0  0
    5.5018    0.4230    0.6752 H   0  0  0  0  0  0  0  0  0  0  0  0
    4.9957   -0.1321   -0.9175 H   0  0  0  0  0  0  0  0  0  0  0  0
    5.1623    3.4892    0.4485 H   0  0  0  0  0  0  0  0  0  0  0  0
    6.5822    2.5795    0.9611 H   0  0  0  0  0  0  0  0  0  0  0  0
    6.4490    4.4537   -1.4573 H   0  0  0  0  0  0  0  0  0  0  0  0
    7.1743    4.8629    0.0905 H   0  0  0  0  0  0  0  0  0  0  0  0
    8.5887    3.8883   -2.0103 H   0  0  0  0  0  0  0  0  0  0  0  0
    8.3516    1.3224   -0.3895 H   0  0  0  0  0  0  0  0  0  0  0  0
    8.9427    1.5555   -2.0331 H   0  0  0  0  0  0  0  0  0  0  0  0
    6.7402    0.4608   -2.0986 H   0  0  0  0  0  0  0  0  0  0  0  0
    6.6126    2.0660   -2.7990 H   0  0  0  0  0  0  0  0  0  0  0  0
    9.1884    3.3793    0.9188 H   0  0  0  0  0  0  0  0  0  0  0  0
   12.3972    4.1958    0.2845 H   0  0  0  0  0  0  0  0  0  0  0  0
    0.9359    1.4930    1.3463 H   0  0  0  0  0  0  0  0  0  0  0  0
   -1.3139    2.3927    1.3709 H   0  0  0  0  0  0  0  0  0  0  0  0
  1  2  1  0  0  0  0
  1 24  1  0  0  0  0
  1 25  1  0  0  0  0
  2  3  2  0  0  0  0
  2  4  1  0  0  0  0
  4  5  1  0  0  0  0
  4 23  2  0  0  0  0
  5  6  2  0  0  0  0
  5 26  1  0  0  0  0
  6  7  1  0  0  0  0
  6 27  1  0  0  0  0
  7  8  1  0  0  0  0
  7 22  2  0  0  0  0
  8  9  1  0  0  0  0
  8 28  1  0  0  0  0
  9 10  2  0  0  0  0
  9 11  1  0  0  0  0
 11 12  1  0  0  0  0
 11 29  1  0  0  0  0
 11 30  1  0  0  0  0
 12 13  1  0  0  0  0
 12 17  1  0  0  0  0
 13 14  1  0  0  0  0
 13 31  1  0  0  0  0
 13 32  1  0  0  0  0
 14 15  1  0  0  0  0
 14 33  1  0  0  0  0
 14 34  1  0  0  0  0
 15 16  1  0  0  0  0
 15 18  1  0  0  0  0
 15 35  1  0  0  0  0
 16 17  1  0  0  0  0
 16 36  1  0  0  0  0
 16 37  1  0  0  0  0
 17 38  1  0  0  0  0
 17 39  1  0  0  0  0
 18 19  1  0  0  0  0
 18 40  1  0  0  0  0
 19 20  1  0  0  0  0
 19 21  2  0  0  0  0
 20 41  1  0  0  0  0
 22 23  1  0  0  0  0
 22 42  1  0  0  0  0
 23 43  1  0  0  0  0
M  END
> <Energy FFXML>
-100.55771508794965

> <SMILES QCArchive>
[H]c1c(c(c(c(c1C(=O)N([H])[H])[H])[H])N([H])C(=O)C([H])([H])N2C(C(C(C(C2([H])[H])([H])[H])([H])N([H])C(=O)O[H])([H])[H])([H])[H])[H]

> <Energy QCArchive>
-692652.5845992261

> <Record QCArchive>
36954834

> <final_energy>
-100.55771508794965

$$$$
