BRI-00505-00
  -OEChem-11282313333D

 34 36  0     0  0  0  0  0  0999 V2000
    4.0013    4.2886    0.6888 C   0  0  0  0  0  0  0  0  0  0  0  0
    2.5770    4.1880    0.2951 N   0  0  0  0  0  0  0  0  0  0  0  0
    1.7728    5.2614   -0.0312 C   0  0  0  0  0  0  0  0  0  0  0  0
    0.5522    4.8607   -0.3188 N   0  0  0  0  0  0  0  0  0  0  0  0
    0.5811    3.4660   -0.1581 C   0  0  0  0  0  0  0  0  0  0  0  0
   -0.6807    2.6558   -0.3409 C   0  0  0  0  0  0  0  0  0  0  0  0
    1.8340    3.0312    0.2083 C   0  0  0  0  0  0  0  0  0  0  0  0
    2.3108    1.6459    0.4584 C   0  0  0  0  0  0  0  0  0  0  0  0
    1.7678    0.5069   -0.0269 C   0  0  0  0  0  0  0  0  0  0  0  0
    2.5632   -0.4912    0.4569 N   0  0  0  0  0  0  0  0  0  0  0  0
    3.5882    0.0298    1.2136 N   0  0  0  0  0  0  0  0  0  0  0  0
    3.4451    1.3307    1.2190 N   0  0  0  0  0  0  0  0  0  0  0  0
    2.3843   -1.8763    0.2275 C   0  0  0  0  0  0  0  0  0  0  0  0
    3.3215   -2.8019    0.7442 C   0  0  0  0  0  0  0  0  0  0  0  0
    3.1644   -4.1822    0.5205 C   0  0  0  0  0  0  0  0  0  0  0  0
    2.0653   -4.6617   -0.2157 C   0  0  0  0  0  0  0  0  0  0  0  0
    1.1058   -3.7563   -0.7317 C   0  0  0  0  0  0  0  0  0  0  0  0
    1.2793   -2.3665   -0.5114 C   0  0  0  0  0  0  0  0  0  0  0  0
   -0.0722   -4.2412   -1.5126 C   0  0  0  0  0  0  0  0  0  0  0  0
   -0.4057   -5.5500   -1.4817 O   0  0  0  0  0  0  0  0  0  0  0  0
   -0.7467   -3.4363   -2.1353 O   0  0  0  0  0  0  0  0  0  0  0  0
    4.1247    4.0138    1.7403 H   0  0  0  0  0  0  0  0  0  0  0  0
    4.6146    3.6298    0.0673 H   0  0  0  0  0  0  0  0  0  0  0  0
    4.3650    5.3111    0.5553 H   0  0  0  0  0  0  0  0  0  0  0  0
    2.1007    6.2987   -0.0509 H   0  0  0  0  0  0  0  0  0  0  0  0
   -0.8537    2.4648   -1.4028 H   0  0  0  0  0  0  0  0  0  0  0  0
   -1.5338    3.2144    0.0532 H   0  0  0  0  0  0  0  0  0  0  0  0
   -0.6298    1.7114    0.2020 H   0  0  0  0  0  0  0  0  0  0  0  0
    0.9088    0.4260   -0.6804 H   0  0  0  0  0  0  0  0  0  0  0  0
    4.1814   -2.4563    1.3162 H   0  0  0  0  0  0  0  0  0  0  0  0
    3.9038   -4.8767    0.9168 H   0  0  0  0  0  0  0  0  0  0  0  0
    1.9954   -5.7340   -0.3842 H   0  0  0  0  0  0  0  0  0  0  0  0
    0.5362   -1.6859   -0.9209 H   0  0  0  0  0  0  0  0  0  0  0  0
    0.1439   -6.0336   -0.8592 H   0  0  0  0  0  0  0  0  0  0  0  0
  1  2  1  0  0  0  0
  1 22  1  0  0  0  0
  1 23  1  0  0  0  0
  1 24  1  0  0  0  0
  2  3  1  0  0  0  0
  2  7  1  0  0  0  0
  3  4  2  0  0  0  0
  3 25  1  0  0  0  0
  4  5  1  0  0  0  0
  5  6  1  0  0  0  0
  5  7  2  0  0  0  0
  6 26  1  0  0  0  0
  6 27  1  0  0  0  0
  6 28  1  0  0  0  0
  7  8  1  0  0  0  0
  8  9  2  0  0  0  0
  8 12  1  0  0  0  0
  9 10  1  0  0  0  0
  9 29  1  0  0  0  0
 10 11  1  0  0  0  0
 10 13  1  0  0  0  0
 11 12  2  0  0  0  0
 13 14  1  0  0  0  0
 13 18  2  0  0  0  0
 14 15  2  0  0  0  0
 14 30  1  0  0  0  0
 15 16  1  0  0  0  0
 15 31  1  0  0  0  0
 16 17  2  0  0  0  0
 16 32  1  0  0  0  0
 17 18  1  0  0  0  0
 17 19  1  0  0  0  0
 18 33  1  0  0  0  0
 19 20  1  0  0  0  0
 19 21  2  0  0  0  0
 20 34  1  0  0  0  0
M  END
> <Energy FFXML>
-4.905213949838824

> <SMILES QCArchive>
[H]c1c(c(c(c(c1[H])N2C(=C(N=N2)C3=C(N=C(N3C([H])([H])[H])[H])C([H])([H])[H])[H])[H])C(=O)O[H])[H]

> <Energy QCArchive>
-605972.0554045205

> <Record QCArchive>
36954930

> <final_energy>
-4.905213949838824

$$$$
