BRI-00959-01
  -OEChem-11282313333D

 38 39  0     1  0  0  0  0  0999 V2000
    0.3245    1.3034   -1.0009 O   0  5  0  0  0  0  0  0  0  0  0  0
    0.3325    1.5870    0.2091 N   0  3  0  0  0  0  0  0  0  0  0  0
    1.3853    1.5564    0.8692 O   0  0  0  0  0  0  0  0  0  0  0  0
   -0.8829    1.9460    0.8507 C   0  0  0  0  0  0  0  0  0  0  0  0
   -0.9060    2.2669    2.2335 C   0  0  0  0  0  0  0  0  0  0  0  0
   -2.1120    2.6250    2.8679 C   0  0  0  0  0  0  0  0  0  0  0  0
   -3.3137    2.6716    2.1325 C   0  0  0  0  0  0  0  0  0  0  0  0
   -4.6217    3.0472    2.8137 C   0  0  0  0  0  0  0  0  0  0  0  0
   -5.3446    4.0990    2.0326 N   0  0  1  0  0  0  0  0  0  0  0  0
   -6.8263    4.1110    2.2226 C   0  0  0  0  0  0  0  0  0  0  0  0
   -7.4503    2.9974    1.3987 C   0  0  0  0  0  0  0  0  0  0  0  0
   -7.2788    2.9843   -0.0027 C   0  0  0  0  0  0  0  0  0  0  0  0
   -7.8489    1.9530   -0.7748 C   0  0  0  0  0  0  0  0  0  0  0  0
   -8.5914    0.9353   -0.1483 C   0  0  0  0  0  0  0  0  0  0  0  0
   -9.2968   -0.3430   -1.1055 Cl  0  0  0  0  0  0  0  0  0  0  0  0
   -8.7664    0.9442    1.2480 C   0  0  0  0  0  0  0  0  0  0  0  0
   -8.1970    1.9742    2.0239 C   0  0  0  0  0  0  0  0  0  0  0  0
   -4.6760    5.4648    2.0036 C   0  0  0  0  0  0  0  0  0  0  0  0
   -4.7240    6.1981    0.6209 C   0  0  0  0  0  0  0  0  0  0  0  0
   -4.0144    7.3562    0.7131 F   0  0  0  0  0  0  0  0  0  0  0  0
   -4.1746    5.4230   -0.3555 F   0  0  0  0  0  0  0  0  0  0  0  0
   -6.0056    6.5066    0.2764 F   0  0  0  0  0  0  0  0  0  0  0  0
   -3.3038    2.3465    0.7619 C   0  0  0  0  0  0  0  0  0  0  0  0
   -2.1009    1.9915    0.1228 C   0  0  0  0  0  0  0  0  0  0  0  0
    0.0076    2.2412    2.8259 H   0  0  0  0  0  0  0  0  0  0  0  0
   -2.1045    2.8645    3.9289 H   0  0  0  0  0  0  0  0  0  0  0  0
   -4.4316    3.4034    3.8311 H   0  0  0  0  0  0  0  0  0  0  0  0
   -5.2393    2.1474    2.8998 H   0  0  0  0  0  0  0  0  0  0  0  0
   -7.0718    3.9865    3.2821 H   0  0  0  0  0  0  0  0  0  0  0  0
   -7.2537    5.0673    1.9086 H   0  0  0  0  0  0  0  0  0  0  0  0
   -6.6967    3.7698   -0.4826 H   0  0  0  0  0  0  0  0  0  0  0  0
   -7.7174    1.9376   -1.8544 H   0  0  0  0  0  0  0  0  0  0  0  0
   -9.3425    0.1511    1.7192 H   0  0  0  0  0  0  0  0  0  0  0  0
   -8.3364    1.9713    3.1029 H   0  0  0  0  0  0  0  0  0  0  0  0
   -5.1283    6.1140    2.7585 H   0  0  0  0  0  0  0  0  0  0  0  0
   -3.6234    5.3663    2.2838 H   0  0  0  0  0  0  0  0  0  0  0  0
   -4.2334    2.3856    0.1961 H   0  0  0  0  0  0  0  0  0  0  0  0
   -2.1296    1.7563   -0.9403 H   0  0  0  0  0  0  0  0  0  0  0  0
  1  2  1  0  0  0  0
  2  3  2  0  0  0  0
  2  4  1  0  0  0  0
  4  5  1  0  0  0  0
  4 24  2  0  0  0  0
  5  6  2  0  0  0  0
  5 25  1  0  0  0  0
  6  7  1  0  0  0  0
  6 26  1  0  0  0  0
  7  8  1  0  0  0  0
  7 23  2  0  0  0  0
  8  9  1  0  0  0  0
  8 27  1  0  0  0  0
  8 28  1  0  0  0  0
  9 10  1  0  0  0  0
  9 18  1  0  0  0  0
 10 11  1  0  0  0  0
 10 29  1  0  0  0  0
 10 30  1  0  0  0  0
 11 12  1  0  0  0  0
 11 17  2  0  0  0  0
 12 13  2  0  0  0  0
 12 31  1  0  0  0  0
 13 14  1  0  0  0  0
 13 32  1  0  0  0  0
 14 15  1  0  0  0  0
 14 16  2  0  0  0  0
 16 17  1  0  0  0  0
 16 33  1  0  0  0  0
 17 34  1  0  0  0  0
 18 19  1  0  0  0  0
 18 35  1  0  0  0  0
 18 36  1  0  0  0  0
 19 20  1  0  0  0  0
 19 21  1  0  0  0  0
 19 22  1  0  0  0  0
 23 24  1  0  0  0  0
 23 37  1  0  0  0  0
 24 38  1  0  0  0  0
M  CHG  2   1  -1   2   1
M  END
> <Energy FFXML>
67.50104036877671

> <SMILES QCArchive>
[H]c1c(c(c(c(c1C([H])([H])N(C([H])([H])c2c(c(c(c(c2[H])[H])Cl)[H])[H])C([H])([H])C(F)(F)F)[H])[H])[N+](=O)[O-])[H]

> <Energy QCArchive>
-1027817.2726237878

> <Record QCArchive>
36954904

> <final_energy>
67.50104036877671

$$$$
