BRI-00959-04
  -OEChem-11282313333D

 38 39  0     1  0  0  0  0  0999 V2000
    0.1264    0.0892    2.4175 O   0  5  0  0  0  0  0  0  0  0  0  0
    0.2545    1.0970    1.7015 N   0  3  0  0  0  0  0  0  0  0  0  0
    1.3748    1.4740    1.3172 O   0  0  0  0  0  0  0  0  0  0  0  0
   -0.8994    1.8269    1.3098 C   0  0  0  0  0  0  0  0  0  0  0  0
   -0.7849    2.9771    0.4855 C   0  0  0  0  0  0  0  0  0  0  0  0
   -1.9302    3.7014    0.0997 C   0  0  0  0  0  0  0  0  0  0  0  0
   -3.2077    3.2916    0.5323 C   0  0  0  0  0  0  0  0  0  0  0  0
   -4.4499    4.0631    0.1108 C   0  0  0  0  0  0  0  0  0  0  0  0
   -5.3123    4.3688    1.2948 N   0  0  2  0  0  0  0  0  0  0  0  0
   -6.7622    4.5479    0.9824 C   0  0  0  0  0  0  0  0  0  0  0  0
   -7.4106    3.1867    0.7957 C   0  0  0  0  0  0  0  0  0  0  0  0
   -8.0233    2.8458   -0.4307 C   0  0  0  0  0  0  0  0  0  0  0  0
   -8.6167    1.5775   -0.5922 C   0  0  0  0  0  0  0  0  0  0  0  0
   -8.5992    0.6515    0.4673 C   0  0  0  0  0  0  0  0  0  0  0  0
   -9.3337   -0.9190    0.2627 Cl  0  0  0  0  0  0  0  0  0  0  0  0
   -7.9905    0.9875    1.6905 C   0  0  0  0  0  0  0  0  0  0  0  0
   -7.3969    2.2543    1.8558 C   0  0  0  0  0  0  0  0  0  0  0  0
   -4.7280    5.3609    2.2882 C   0  0  0  0  0  0  0  0  0  0  0  0
   -4.9686    5.0101    3.7950 C   0  0  0  0  0  0  0  0  0  0  0  0
   -4.4874    3.7689    4.0840 F   0  0  0  0  0  0  0  0  0  0  0  0
   -4.3189    5.9236    4.5677 F   0  0  0  0  0  0  0  0  0  0  0  0
   -6.2955    5.0559    4.1008 F   0  0  0  0  0  0  0  0  0  0  0  0
   -3.3336    2.1468    1.3432 C   0  0  0  0  0  0  0  0  0  0  0  0
   -2.1921    1.4217    1.7342 C   0  0  0  0  0  0  0  0  0  0  0  0
    0.1895    3.3178    0.1381 H   0  0  0  0  0  0  0  0  0  0  0  0
   -1.8171    4.5782   -0.5340 H   0  0  0  0  0  0  0  0  0  0  0  0
   -4.1671    4.9922   -0.3941 H   0  0  0  0  0  0  0  0  0  0  0  0
   -5.0035    3.4597   -0.6157 H   0  0  0  0  0  0  0  0  0  0  0  0
   -7.2745    5.0773    1.7906 H   0  0  0  0  0  0  0  0  0  0  0  0
   -6.8816    5.1555    0.0797 H   0  0  0  0  0  0  0  0  0  0  0  0
   -8.0404    3.5541   -1.2564 H   0  0  0  0  0  0  0  0  0  0  0  0
   -9.0904    1.3045   -1.5325 H   0  0  0  0  0  0  0  0  0  0  0  0
   -7.9801    0.2652    2.5037 H   0  0  0  0  0  0  0  0  0  0  0  0
   -6.9178    2.5156    2.7983 H   0  0  0  0  0  0  0  0  0  0  0  0
   -3.6473    5.4384    2.1400 H   0  0  0  0  0  0  0  0  0  0  0  0
   -5.1302    6.3591    2.0939 H   0  0  0  0  0  0  0  0  0  0  0  0
   -4.3217    1.8341    1.6777 H   0  0  0  0  0  0  0  0  0  0  0  0
   -2.3268    0.5476    2.3698 H   0  0  0  0  0  0  0  0  0  0  0  0
  1  2  1  0  0  0  0
  2  3  2  0  0  0  0
  2  4  1  0  0  0  0
  4  5  1  0  0  0  0
  4 24  2  0  0  0  0
  5  6  2  0  0  0  0
  5 25  1  0  0  0  0
  6  7  1  0  0  0  0
  6 26  1  0  0  0  0
  7  8  1  0  0  0  0
  7 23  2  0  0  0  0
  8  9  1  0  0  0  0
  8 27  1  0  0  0  0
  8 28  1  0  0  0  0
  9 10  1  0  0  0  0
  9 18  1  0  0  0  0
 10 11  1  0  0  0  0
 10 29  1  0  0  0  0
 10 30  1  0  0  0  0
 11 12  1  0  0  0  0
 11 17  2  0  0  0  0
 12 13  2  0  0  0  0
 12 31  1  0  0  0  0
 13 14  1  0  0  0  0
 13 32  1  0  0  0  0
 14 15  1  0  0  0  0
 14 16  2  0  0  0  0
 16 17  1  0  0  0  0
 16 33  1  0  0  0  0
 17 34  1  0  0  0  0
 18 19  1  0  0  0  0
 18 35  1  0  0  0  0
 18 36  1  0  0  0  0
 19 20  1  0  0  0  0
 19 21  1  0  0  0  0
 19 22  1  0  0  0  0
 23 24  1  0  0  0  0
 23 37  1  0  0  0  0
 24 38  1  0  0  0  0
M  CHG  2   1  -1   2   1
M  END
> <Energy FFXML>
67.11312932830211

> <SMILES QCArchive>
[H]c1c(c(c(c(c1C([H])([H])N(C([H])([H])c2c(c(c(c(c2[H])[H])Cl)[H])[H])C([H])([H])C(F)(F)F)[H])[H])[N+](=O)[O-])[H]

> <Energy QCArchive>
-1027817.2724103513

> <Record QCArchive>
36954907

> <final_energy>
67.11312932830211

$$$$
