BRI-01064-01
  -OEChem-11282313333D

 57 58  0     1  0  0  0  0  0999 V2000
   -0.9593    2.6465    0.8487 C   0  0  0  0  0  0  0  0  0  0  0  0
    0.2523    1.9220    0.2297 C   0  0  0  0  0  0  0  0  0  0  0  0
   -0.0329    1.3593   -1.1984 C   0  0  0  0  0  0  0  0  0  0  0  0
   -0.7337   -0.0508   -1.3447 C   0  0  1  0  0  0  0  0  0  0  0  0
   -0.0551   -0.6596   -1.9504 H   0  0  0  0  0  0  0  0  0  0  0  0
   -0.9682   -0.8476   -0.0322 C   0  0  0  0  0  0  0  0  0  0  0  0
    0.3258   -1.4231    0.5463 C   0  0  0  0  0  0  0  0  0  0  0  0
    0.4443   -1.4140    1.7660 O   0  0  0  0  0  0  0  0  0  0  0  0
    1.2177   -2.0083   -0.3204 O   0  0  0  0  0  0  0  0  0  0  0  0
    2.4194   -2.5639    0.2867 C   0  0  0  0  0  0  0  0  0  0  0  0
    2.1543   -3.9905    0.8014 C   0  0  0  0  0  0  0  0  0  0  0  0
   -2.0318    0.0287   -2.1177 N   0  0  1  0  0  0  0  0  0  0  0  0
   -3.1265    0.9021   -1.5504 C   0  0  0  0  0  0  0  0  0  0  0  0
   -3.9811    0.1671   -0.5239 C   0  0  0  0  0  0  0  0  0  0  0  0
   -4.4268    0.8415    0.6340 C   0  0  0  0  0  0  0  0  0  0  0  0
   -5.2351    0.1749    1.5758 C   0  0  0  0  0  0  0  0  0  0  0  0
   -5.6129   -1.1639    1.3588 C   0  0  0  0  0  0  0  0  0  0  0  0
   -5.1877   -1.8352    0.1966 C   0  0  0  0  0  0  0  0  0  0  0  0
   -4.3797   -1.1695   -0.7454 C   0  0  0  0  0  0  0  0  0  0  0  0
   -1.9049   -0.0361   -3.6231 C   0  0  1  0  0  0  0  0  0  0  0  0
   -1.0992   -0.7390   -3.8573 H   0  0  0  0  0  0  0  0  0  0  0  0
   -3.1729   -0.6432   -4.2710 C   0  0  0  0  0  0  0  0  0  0  0  0
   -1.5209    1.3111   -4.2564 C   0  0  0  0  0  0  0  0  0  0  0  0
   -0.1626    1.5653   -4.5565 C   0  0  0  0  0  0  0  0  0  0  0  0
    0.2266    2.7927   -5.1263 C   0  0  0  0  0  0  0  0  0  0  0  0
   -0.7388    3.7772   -5.4055 C   0  0  0  0  0  0  0  0  0  0  0  0
   -2.0941    3.5334   -5.1162 C   0  0  0  0  0  0  0  0  0  0  0  0
   -2.4859    2.3068   -4.5452 C   0  0  0  0  0  0  0  0  0  0  0  0
   -1.3384    3.4125    0.1664 H   0  0  0  0  0  0  0  0  0  0  0  0
   -0.6642    3.1339    1.7820 H   0  0  0  0  0  0  0  0  0  0  0  0
   -1.7602    1.9424    1.0761 H   0  0  0  0  0  0  0  0  0  0  0  0
    0.6162    1.1488    0.9058 H   0  0  0  0  0  0  0  0  0  0  0  0
    1.0681    2.6466    0.1492 H   0  0  0  0  0  0  0  0  0  0  0  0
   -0.5859    2.1118   -1.7649 H   0  0  0  0  0  0  0  0  0  0  0  0
    0.9296    1.2911   -1.7130 H   0  0  0  0  0  0  0  0  0  0  0  0
   -1.6361   -1.6846   -0.2410 H   0  0  0  0  0  0  0  0  0  0  0  0
   -1.4633   -0.2258    0.7124 H   0  0  0  0  0  0  0  0  0  0  0  0
    3.2086   -2.6038   -0.4696 H   0  0  0  0  0  0  0  0  0  0  0  0
    2.7945   -1.9286    1.0965 H   0  0  0  0  0  0  0  0  0  0  0  0
    1.7976   -4.6257   -0.0138 H   0  0  0  0  0  0  0  0  0  0  0  0
    1.4032   -3.9788    1.5959 H   0  0  0  0  0  0  0  0  0  0  0  0
    3.0751   -4.4211    1.2034 H   0  0  0  0  0  0  0  0  0  0  0  0
   -3.7897    1.2573   -2.3383 H   0  0  0  0  0  0  0  0  0  0  0  0
   -2.7042    1.8024   -1.1033 H   0  0  0  0  0  0  0  0  0  0  0  0
   -4.1485    1.8784    0.8079 H   0  0  0  0  0  0  0  0  0  0  0  0
   -5.5689    0.6950    2.4714 H   0  0  0  0  0  0  0  0  0  0  0  0
   -6.2357   -1.6789    2.0875 H   0  0  0  0  0  0  0  0  0  0  0  0
   -5.4817   -2.8687    0.0258 H   0  0  0  0  0  0  0  0  0  0  0  0
   -4.0486   -1.6909   -1.6400 H   0  0  0  0  0  0  0  0  0  0  0  0
   -3.0515   -0.6937   -5.3565 H   0  0  0  0  0  0  0  0  0  0  0  0
   -4.0666   -0.0574   -4.0507 H   0  0  0  0  0  0  0  0  0  0  0  0
   -3.3289   -1.6593   -3.9005 H   0  0  0  0  0  0  0  0  0  0  0  0
    0.5947    0.8150   -4.3403 H   0  0  0  0  0  0  0  0  0  0  0  0
    1.2749    2.9805   -5.3494 H   0  0  0  0  0  0  0  0  0  0  0  0
   -0.4380    4.7260   -5.8455 H   0  0  0  0  0  0  0  0  0  0  0  0
   -2.8414    4.2937   -5.3343 H   0  0  0  0  0  0  0  0  0  0  0  0
   -3.5401    2.1464   -4.3386 H   0  0  0  0  0  0  0  0  0  0  0  0
  1  2  1  0  0  0  0
  1 29  1  0  0  0  0
  1 30  1  0  0  0  0
  1 31  1  0  0  0  0
  2  3  1  0  0  0  0
  2 32  1  0  0  0  0
  2 33  1  0  0  0  0
  3  4  1  0  0  0  0
  3 34  1  0  0  0  0
  3 35  1  0  0  0  0
  4  5  1  0  0  0  0
  4  6  1  0  0  0  0
  4 12  1  0  0  0  0
  6  7  1  0  0  0  0
  6 36  1  0  0  0  0
  6 37  1  0  0  0  0
  7  8  2  0  0  0  0
  7  9  1  0  0  0  0
  9 10  1  0  0  0  0
 10 11  1  0  0  0  0
 10 38  1  0  0  0  0
 10 39  1  0  0  0  0
 11 40  1  0  0  0  0
 11 41  1  0  0  0  0
 11 42  1  0  0  0  0
 12 13  1  0  0  0  0
 12 20  1  0  0  0  0
 13 14  1  0  0  0  0
 13 43  1  0  0  0  0
 13 44  1  0  0  0  0
 14 15  1  0  0  0  0
 14 19  2  0  0  0  0
 15 16  2  0  0  0  0
 15 45  1  0  0  0  0
 16 17  1  0  0  0  0
 16 46  1  0  0  0  0
 17 18  2  0  0  0  0
 17 47  1  0  0  0  0
 18 19  1  0  0  0  0
 18 48  1  0  0  0  0
 19 49  1  0  0  0  0
 20 21  1  0  0  0  0
 20 22  1  0  0  0  0
 20 23  1  0  0  0  0
 22 50  1  0  0  0  0
 22 51  1  0  0  0  0
 22 52  1  0  0  0  0
 23 24  1  0  0  0  0
 23 28  2  0  0  0  0
 24 25  2  0  0  0  0
 24 53  1  0  0  0  0
 25 26  1  0  0  0  0
 25 54  1  0  0  0  0
 26 27  2  0  0  0  0
 26 55  1  0  0  0  0
 27 28  1  0  0  0  0
 27 56  1  0  0  0  0
 28 57  1  0  0  0  0
M  END
> <Energy FFXML>
-7.153167528931582

> <SMILES QCArchive>
[H]c1c(c(c(c(c1[H])[H])[C@]([H])(C([H])([H])[H])N([C@]([H])(C([H])([H])C(=O)OC([H])([H])C([H])([H])[H])C([H])([H])C([H])([H])C([H])([H])[H])C([H])([H])c2c(c(c(c(c2[H])[H])[H])[H])[H])[H])[H]

> <Energy QCArchive>
-690599.1497686488

> <Record QCArchive>
36954888

> <final_energy>
-7.153167528931582

$$$$
