BRI-01356-01
  -OEChem-11282313333D

 43 44  0     0  0  0  0  0  0999 V2000
   -3.2201    4.3124    0.5326 N   0  0  0  0  0  0  0  0  0  0  0  0
   -2.8055    3.0355    0.3135 C   0  0  0  0  0  0  0  0  0  0  0  0
   -3.6865    2.1980    0.2219 O   0  0  0  0  0  0  0  0  0  0  0  0
   -1.3658    2.6826    0.1658 C   0  0  0  0  0  0  0  0  0  0  0  0
   -0.3508    3.6434    0.3870 C   0  0  0  0  0  0  0  0  0  0  0  0
    1.0056    3.2921    0.2405 C   0  0  0  0  0  0  0  0  0  0  0  0
    1.3710    1.9813   -0.1415 C   0  0  0  0  0  0  0  0  0  0  0  0
    2.7008    1.5506   -0.2826 N   0  0  0  0  0  0  0  0  0  0  0  0
    3.8225    2.3286   -0.5792 C   0  0  0  0  0  0  0  0  0  0  0  0
    3.7347    3.5341   -0.7765 O   0  0  0  0  0  0  0  0  0  0  0  0
    5.2056    1.5907   -0.7303 C   0  0  0  0  0  0  0  0  0  0  0  0
    6.4470    2.4420   -0.9035 N   0  0  0  0  0  0  0  0  0  0  0  0
    6.5248    3.1876   -2.1958 C   0  0  0  0  0  0  0  0  0  0  0  0
    7.9793    3.6415   -2.4836 C   0  0  0  0  0  0  0  0  0  0  0  0
    8.8032    3.8857   -1.1904 C   0  0  0  0  0  0  0  0  0  0  0  0
    7.8759    4.3373   -0.0390 C   0  0  0  0  0  0  0  0  0  0  0  0
    6.8275    3.2483    0.3029 C   0  0  0  0  0  0  0  0  0  0  0  0
    9.4783    2.6283   -0.8190 N   0  0  0  0  0  0  0  0  0  0  0  0
   10.6567    2.6031   -0.1133 C   0  0  0  0  0  0  0  0  0  0  0  0
   11.0813    1.4050    0.3040 O   0  0  0  0  0  0  0  0  0  0  0  0
   11.2550    3.6386    0.1189 O   0  0  0  0  0  0  0  0  0  0  0  0
    0.3610    1.0208   -0.3360 C   0  0  0  0  0  0  0  0  0  0  0  0
   -0.9967    1.3653   -0.1894 C   0  0  0  0  0  0  0  0  0  0  0  0
   -4.2240    4.4507    0.4802 H   0  0  0  0  0  0  0  0  0  0  0  0
   -2.5682    5.0787    0.4253 H   0  0  0  0  0  0  0  0  0  0  0  0
   -0.5896    4.6620    0.6841 H   0  0  0  0  0  0  0  0  0  0  0  0
    1.7510    4.0557    0.4440 H   0  0  0  0  0  0  0  0  0  0  0  0
    2.8514    0.5490   -0.2959 H   0  0  0  0  0  0  0  0  0  0  0  0
    5.3457    0.9577    0.1501 H   0  0  0  0  0  0  0  0  0  0  0  0
    5.1316    0.9065   -1.5799 H   0  0  0  0  0  0  0  0  0  0  0  0
    6.1705    2.5613   -3.0202 H   0  0  0  0  0  0  0  0  0  0  0  0
    5.8757    4.0679   -2.1563 H   0  0  0  0  0  0  0  0  0  0  0  0
    8.4795    2.8862   -3.0964 H   0  0  0  0  0  0  0  0  0  0  0  0
    7.9526    4.5588   -3.0778 H   0  0  0  0  0  0  0  0  0  0  0  0
    9.5439    4.6676   -1.3960 H   0  0  0  0  0  0  0  0  0  0  0  0
    8.4681    4.5721    0.8499 H   0  0  0  0  0  0  0  0  0  0  0  0
    7.3602    5.2556   -0.3338 H   0  0  0  0  0  0  0  0  0  0  0  0
    5.9465    3.7271    0.7407 H   0  0  0  0  0  0  0  0  0  0  0  0
    7.2391    2.5791    1.0645 H   0  0  0  0  0  0  0  0  0  0  0  0
    8.8703    1.8175   -0.7607 H   0  0  0  0  0  0  0  0  0  0  0  0
   10.5030    0.7101   -0.0219 H   0  0  0  0  0  0  0  0  0  0  0  0
    0.6144    0.0007   -0.6121 H   0  0  0  0  0  0  0  0  0  0  0  0
   -1.7659    0.6101   -0.3529 H   0  0  0  0  0  0  0  0  0  0  0  0
  1  2  1  0  0  0  0
  1 24  1  0  0  0  0
  1 25  1  0  0  0  0
  2  3  2  0  0  0  0
  2  4  1  0  0  0  0
  4  5  1  0  0  0  0
  4 23  2  0  0  0  0
  5  6  2  0  0  0  0
  5 26  1  0  0  0  0
  6  7  1  0  0  0  0
  6 27  1  0  0  0  0
  7  8  1  0  0  0  0
  7 22  2  0  0  0  0
  8  9  1  0  0  0  0
  8 28  1  0  0  0  0
  9 10  2  0  0  0  0
  9 11  1  0  0  0  0
 11 12  1  0  0  0  0
 11 29  1  0  0  0  0
 11 30  1  0  0  0  0
 12 13  1  0  0  0  0
 12 17  1  0  0  0  0
 13 14  1  0  0  0  0
 13 31  1  0  0  0  0
 13 32  1  0  0  0  0
 14 15  1  0  0  0  0
 14 33  1  0  0  0  0
 14 34  1  0  0  0  0
 15 16  1  0  0  0  0
 15 18  1  0  0  0  0
 15 35  1  0  0  0  0
 16 17  1  0  0  0  0
 16 36  1  0  0  0  0
 16 37  1  0  0  0  0
 17 38  1  0  0  0  0
 17 39  1  0  0  0  0
 18 19  1  0  0  0  0
 18 40  1  0  0  0  0
 19 20  1  0  0  0  0
 19 21  2  0  0  0  0
 20 41  1  0  0  0  0
 22 23  1  0  0  0  0
 22 42  1  0  0  0  0
 23 43  1  0  0  0  0
M  END
> <Energy FFXML>
-90.35862328889549

> <SMILES QCArchive>
[H]c1c(c(c(c(c1C(=O)N([H])[H])[H])[H])N([H])C(=O)C([H])([H])N2C(C(C(C(C2([H])[H])([H])[H])([H])N([H])C(=O)O[H])([H])[H])([H])[H])[H]

> <Energy QCArchive>
-692650.740987795

> <Record QCArchive>
36954829

> <final_energy>
-90.35862328889549

$$$$
