BRI-01347-03
  -OEChem-11282313333D

 46 46  0     1  0  0  0  0  0999 V2000
   -9.5799    1.4138    9.4895 C   0  0  0  0  0  0  0  0  0  0  0  0
   -8.7683    1.1533    8.2067 C   0  0  0  0  0  0  0  0  0  0  0  0
   -7.5807    0.2039    8.4959 C   0  0  0  0  0  0  0  0  0  0  0  0
   -6.8300   -0.2061    7.2071 C   0  0  0  0  0  0  0  0  0  0  0  0
   -6.1273    0.9347    6.6238 O   0  0  0  0  0  0  0  0  0  0  0  0
   -6.7255    1.5524    5.5553 C   0  0  0  0  0  0  0  0  0  0  0  0
   -7.7939    1.1867    5.0740 O   0  0  0  0  0  0  0  0  0  0  0  0
   -6.0191    2.6196    5.0653 O   0  0  0  0  0  0  0  0  0  0  0  0
   -6.6081    3.3133    3.9253 C   0  0  0  0  0  0  0  0  0  0  0  0
   -6.3387    2.5618    2.5990 C   0  0  0  0  0  0  0  0  0  0  0  0
   -4.8179    2.4024    2.3419 C   0  0  0  0  0  0  0  0  0  0  0  0
   -4.5366    1.7215    0.9753 C   0  0  2  0  0  0  0  0  0  0  0  0
   -4.7485    0.1974    1.0668 C   0  0  0  0  0  0  0  0  0  0  0  0
   -3.1448    1.9379    0.6050 O   0  0  0  0  0  0  0  0  0  0  0  0
   -2.8777    3.0974   -0.0870 C   0  0  0  0  0  0  0  0  0  0  0  0
   -3.7181    3.9543   -0.3437 O   0  0  0  0  0  0  0  0  0  0  0  0
   -1.4678    3.3383   -0.5206 C   0  0  0  0  0  0  0  0  0  0  0  0
   -1.1207    4.5147   -1.2319 C   0  0  0  0  0  0  0  0  0  0  0  0
    0.2112    4.7338   -1.6370 C   0  0  0  0  0  0  0  0  0  0  0  0
    1.2039    3.7848   -1.3367 C   0  0  0  0  0  0  0  0  0  0  0  0
    2.8528    4.0596   -1.8400 Cl  0  0  0  0  0  0  0  0  0  0  0  0
    0.8715    2.6148   -0.6315 C   0  0  0  0  0  0  0  0  0  0  0  0
   -0.4586    2.3893   -0.2235 C   0  0  0  0  0  0  0  0  0  0  0  0
   -9.9895    0.4777    9.8798 H   0  0  0  0  0  0  0  0  0  0  0  0
   -8.9464    1.8695   10.2559 H   0  0  0  0  0  0  0  0  0  0  0  0
  -10.4101    2.0931    9.2766 H   0  0  0  0  0  0  0  0  0  0  0  0
   -9.4209    0.7117    7.4472 H   0  0  0  0  0  0  0  0  0  0  0  0
   -8.3975    2.1051    7.8153 H   0  0  0  0  0  0  0  0  0  0  0  0
   -6.8813    0.6856    9.1856 H   0  0  0  0  0  0  0  0  0  0  0  0
   -7.9528   -0.6993    8.9880 H   0  0  0  0  0  0  0  0  0  0  0  0
   -6.0864   -0.9638    7.4702 H   0  0  0  0  0  0  0  0  0  0  0  0
   -7.5130   -0.6957    6.5056 H   0  0  0  0  0  0  0  0  0  0  0  0
   -7.6844    3.4622    4.0640 H   0  0  0  0  0  0  0  0  0  0  0  0
   -6.1691    4.3133    3.8598 H   0  0  0  0  0  0  0  0  0  0  0  0
   -6.8221    1.5819    2.6276 H   0  0  0  0  0  0  0  0  0  0  0  0
   -6.7914    3.1223    1.7759 H   0  0  0  0  0  0  0  0  0  0  0  0
   -4.3581    1.8203    3.1462 H   0  0  0  0  0  0  0  0  0  0  0  0
   -4.3520    3.3920    2.3561 H   0  0  0  0  0  0  0  0  0  0  0  0
   -5.2147    2.1165    0.2098 H   0  0  0  0  0  0  0  0  0  0  0  0
   -5.7910   -0.0350    1.2974 H   0  0  0  0  0  0  0  0  0  0  0  0
   -4.4974   -0.2729    0.1122 H   0  0  0  0  0  0  0  0  0  0  0  0
   -4.1109   -0.2321    1.8447 H   0  0  0  0  0  0  0  0  0  0  0  0
   -1.8809    5.2584   -1.4708 H   0  0  0  0  0  0  0  0  0  0  0  0
    0.4783    5.6360   -2.1827 H   0  0  0  0  0  0  0  0  0  0  0  0
    1.6478    1.8876   -0.4041 H   0  0  0  0  0  0  0  0  0  0  0  0
   -0.6989    1.4778    0.3227 H   0  0  0  0  0  0  0  0  0  0  0  0
  1  2  1  0  0  0  0
  1 24  1  0  0  0  0
  1 25  1  0  0  0  0
  1 26  1  0  0  0  0
  2  3  1  0  0  0  0
  2 27  1  0  0  0  0
  2 28  1  0  0  0  0
  3  4  1  0  0  0  0
  3 29  1  0  0  0  0
  3 30  1  0  0  0  0
  4  5  1  0  0  0  0
  4 31  1  0  0  0  0
  4 32  1  0  0  0  0
  5  6  1  0  0  0  0
  6  7  2  0  0  0  0
  6  8  1  0  0  0  0
  8  9  1  0  0  0  0
  9 10  1  0  0  0  0
  9 33  1  0  0  0  0
  9 34  1  0  0  0  0
 10 11  1  0  0  0  0
 10 35  1  0  0  0  0
 10 36  1  0  0  0  0
 11 12  1  0  0  0  0
 11 37  1  0  0  0  0
 11 38  1  0  0  0  0
 12 13  1  0  0  0  0
 12 14  1  0  0  0  0
 12 39  1  0  0  0  0
 13 40  1  0  0  0  0
 13 41  1  0  0  0  0
 13 42  1  0  0  0  0
 14 15  1  0  0  0  0
 15 16  2  0  0  0  0
 15 17  1  0  0  0  0
 17 18  1  0  0  0  0
 17 23  2  0  0  0  0
 18 19  2  0  0  0  0
 18 43  1  0  0  0  0
 19 20  1  0  0  0  0
 19 44  1  0  0  0  0
 20 21  1  0  0  0  0
 20 22  2  0  0  0  0
 22 23  1  0  0  0  0
 22 45  1  0  0  0  0
 23 46  1  0  0  0  0
M  END
> <Energy FFXML>
-19.8787534547629

> <SMILES QCArchive>
[H]c1c(c(c(c(c1C(=O)O[C@@]([H])(C([H])([H])[H])C([H])([H])C([H])([H])C([H])([H])OC(=O)OC([H])([H])C([H])([H])C([H])([H])C([H])([H])[H])[H])[H])Cl)[H]

> <Energy QCArchive>
-940139.7300101558

> <Record QCArchive>
36954923

> <final_energy>
-19.8787534547629

$$$$
