BRI-00538-08
  -OEChem-11282313333D

 40 41  0     1  0  0  0  0  0999 V2000
    1.2689    5.3582   -2.7089 C   0  0  0  0  0  0  0  0  0  0  0  0
    0.2041    6.0369   -1.9153 N   0  0  2  0  0  0  0  0  0  0  0  0
   -0.0245    7.4733   -2.2566 C   0  0  0  0  0  0  0  0  0  0  0  0
    1.1606    8.3741   -1.8348 C   0  0  0  0  0  0  0  0  0  0  0  0
    0.8739    9.8204   -2.1962 C   0  0  0  0  0  0  0  0  0  0  0  0
    0.2099   10.6590   -1.2765 C   0  0  0  0  0  0  0  0  0  0  0  0
   -0.0777   11.9954   -1.6182 C   0  0  0  0  0  0  0  0  0  0  0  0
    0.2917   12.4950   -2.8813 C   0  0  0  0  0  0  0  0  0  0  0  0
    0.0040   13.7897   -3.1919 O   0  0  0  0  0  0  0  0  0  0  0  0
    0.9499   11.6532   -3.8102 C   0  0  0  0  0  0  0  0  0  0  0  0
    1.3092   12.1200   -5.0392 O   0  0  0  0  0  0  0  0  0  0  0  0
    1.2363   10.3176   -3.4664 C   0  0  0  0  0  0  0  0  0  0  0  0
    0.2101    5.7225   -0.4532 C   0  0  0  0  0  0  0  0  0  0  0  0
   -0.1528    4.2652   -0.2040 C   0  0  0  0  0  0  0  0  0  0  0  0
    0.6644    3.4552    0.6100 C   0  0  0  0  0  0  0  0  0  0  0  0
    0.3180    2.1105    0.8484 C   0  0  0  0  0  0  0  0  0  0  0  0
   -0.8561    1.5533    0.2769 C   0  0  0  0  0  0  0  0  0  0  0  0
   -1.6724    2.3803   -0.5385 C   0  0  0  0  0  0  0  0  0  0  0  0
   -1.3224    3.7240   -0.7726 C   0  0  0  0  0  0  0  0  0  0  0  0
   -1.2060    0.1973    0.5151 N   0  3  0  0  0  0  0  0  0  0  0  0
   -2.2397   -0.2659    0.0036 O   0  5  0  0  0  0  0  0  0  0  0  0
   -0.4731   -0.5057    1.2317 O   0  0  0  0  0  0  0  0  0  0  0  0
    1.2018    5.6407   -3.7636 H   0  0  0  0  0  0  0  0  0  0  0  0
    2.2616    5.6278   -2.3368 H   0  0  0  0  0  0  0  0  0  0  0  0
    1.1606    4.2713   -2.6467 H   0  0  0  0  0  0  0  0  0  0  0  0
   -0.1904    7.5703   -3.3343 H   0  0  0  0  0  0  0  0  0  0  0  0
   -0.9398    7.8232   -1.7687 H   0  0  0  0  0  0  0  0  0  0  0  0
    2.0760    8.0445   -2.3328 H   0  0  0  0  0  0  0  0  0  0  0  0
    1.3282    8.2907   -0.7579 H   0  0  0  0  0  0  0  0  0  0  0  0
   -0.0838   10.2789   -0.2999 H   0  0  0  0  0  0  0  0  0  0  0  0
   -0.5870   12.6341   -0.9010 H   0  0  0  0  0  0  0  0  0  0  0  0
   -0.4467   14.2444   -2.4670 H   0  0  0  0  0  0  0  0  0  0  0  0
    1.7477   11.4434   -5.5712 H   0  0  0  0  0  0  0  0  0  0  0  0
    1.7362    9.6667   -4.1780 H   0  0  0  0  0  0  0  0  0  0  0  0
   -0.5124    6.3574    0.0690 H   0  0  0  0  0  0  0  0  0  0  0  0
    1.1952    5.9417   -0.0296 H   0  0  0  0  0  0  0  0  0  0  0  0
    1.5681    3.8616    1.0583 H   0  0  0  0  0  0  0  0  0  0  0  0
    0.9699    1.5086    1.4801 H   0  0  0  0  0  0  0  0  0  0  0  0
   -2.5804    1.9929   -0.9984 H   0  0  0  0  0  0  0  0  0  0  0  0
   -1.9474    4.3516   -1.4054 H   0  0  0  0  0  0  0  0  0  0  0  0
  1  2  1  0  0  0  0
  1 23  1  0  0  0  0
  1 24  1  0  0  0  0
  1 25  1  0  0  0  0
  2  3  1  0  0  0  0
  2 13  1  0  0  0  0
  3  4  1  0  0  0  0
  3 26  1  0  0  0  0
  3 27  1  0  0  0  0
  4  5  1  0  0  0  0
  4 28  1  0  0  0  0
  4 29  1  0  0  0  0
  5  6  1  0  0  0  0
  5 12  2  0  0  0  0
  6  7  2  0  0  0  0
  6 30  1  0  0  0  0
  7  8  1  0  0  0  0
  7 31  1  0  0  0  0
  8  9  1  0  0  0  0
  8 10  2  0  0  0  0
  9 32  1  0  0  0  0
 10 11  1  0  0  0  0
 10 12  1  0  0  0  0
 11 33  1  0  0  0  0
 12 34  1  0  0  0  0
 13 14  1  0  0  0  0
 13 35  1  0  0  0  0
 13 36  1  0  0  0  0
 14 15  1  0  0  0  0
 14 19  2  0  0  0  0
 15 16  2  0  0  0  0
 15 37  1  0  0  0  0
 16 17  1  0  0  0  0
 16 38  1  0  0  0  0
 17 18  2  0  0  0  0
 17 20  1  0  0  0  0
 18 19  1  0  0  0  0
 18 39  1  0  0  0  0
 19 40  1  0  0  0  0
 20 21  1  0  0  0  0
 20 22  2  0  0  0  0
M  CHG  2  20   1  21  -1
M  END
> <Energy FFXML>
23.23697500798603

> <SMILES QCArchive>
[H]c1c(c(c(c(c1C([H])([H])N(C([H])([H])[H])C([H])([H])C([H])([H])c2c(c(c(c(c2[H])O[H])O[H])[H])[H])[H])[H])[N+](=O)[O-])[H]

> <Energy QCArchive>
-646977.5266982975

> <Record QCArchive>
36954885

> <final_energy>
23.23697500798603

$$$$
