BRI-01356-09
  -OEChem-11282313333D

 43 44  0     0  0  0  0  0  0999 V2000
   -3.1704    4.0563    1.1874 N   0  0  0  0  0  0  0  0  0  0  0  0
   -2.6674    3.4491    0.0785 C   0  0  0  0  0  0  0  0  0  0  0  0
   -3.4721    3.2112   -0.8054 O   0  0  0  0  0  0  0  0  0  0  0  0
   -1.2201    3.1225   -0.0610 C   0  0  0  0  0  0  0  0  0  0  0  0
   -0.7326    2.5884   -1.2759 C   0  0  0  0  0  0  0  0  0  0  0  0
    0.6331    2.2764   -1.4241 C   0  0  0  0  0  0  0  0  0  0  0  0
    1.5346    2.4821   -0.3553 C   0  0  0  0  0  0  0  0  0  0  0  0
    2.9120    2.2158   -0.4214 N   0  0  0  0  0  0  0  0  0  0  0  0
    3.6161    1.4575   -1.3513 C   0  0  0  0  0  0  0  0  0  0  0  0
    3.0857    0.8720   -2.2851 O   0  0  0  0  0  0  0  0  0  0  0  0
    5.1449    1.2848   -1.1320 C   0  0  0  0  0  0  0  0  0  0  0  0
    5.7115    2.2346   -0.0849 N   0  0  0  0  0  0  0  0  0  0  0  0
    5.9415    3.6345   -0.5629 C   0  0  0  0  0  0  0  0  0  0  0  0
    7.2667    3.7380   -1.3473 C   0  0  0  0  0  0  0  0  0  0  0  0
    8.4353    3.1948   -0.4985 C   0  0  0  0  0  0  0  0  0  0  0  0
    8.1520    1.7408   -0.0698 C   0  0  0  0  0  0  0  0  0  0  0  0
    6.8332    1.6776    0.7259 C   0  0  0  0  0  0  0  0  0  0  0  0
    9.6809    3.2280   -1.2907 N   0  0  0  0  0  0  0  0  0  0  0  0
   10.5551    4.2918   -1.2410 C   0  0  0  0  0  0  0  0  0  0  0  0
   11.6139    4.2488   -2.0589 O   0  0  0  0  0  0  0  0  0  0  0  0
   10.3392    5.2246   -0.4882 O   0  0  0  0  0  0  0  0  0  0  0  0
    1.0496    3.0214    0.8509 C   0  0  0  0  0  0  0  0  0  0  0  0
   -0.3151    3.3360    1.0053 C   0  0  0  0  0  0  0  0  0  0  0  0
   -2.5458    4.4470    1.8801 H   0  0  0  0  0  0  0  0  0  0  0  0
   -4.1413    4.3423    1.1148 H   0  0  0  0  0  0  0  0  0  0  0  0
   -1.4130    2.4178   -2.1104 H   0  0  0  0  0  0  0  0  0  0  0  0
    0.9509    1.8866   -2.3860 H   0  0  0  0  0  0  0  0  0  0  0  0
    3.5118    2.5430    0.3320 H   0  0  0  0  0  0  0  0  0  0  0  0
    5.3234    0.2501   -0.8265 H   0  0  0  0  0  0  0  0  0  0  0  0
    5.6570    1.4310   -2.0865 H   0  0  0  0  0  0  0  0  0  0  0  0
    5.9750    4.3119    0.2964 H   0  0  0  0  0  0  0  0  0  0  0  0
    5.1126    3.9638   -1.1973 H   0  0  0  0  0  0  0  0  0  0  0  0
    7.1906    3.1776   -2.2824 H   0  0  0  0  0  0  0  0  0  0  0  0
    7.4550    4.7844   -1.6046 H   0  0  0  0  0  0  0  0  0  0  0  0
    8.5384    3.8037    0.4082 H   0  0  0  0  0  0  0  0  0  0  0  0
    8.0839    1.0952   -0.9497 H   0  0  0  0  0  0  0  0  0  0  0  0
    8.9720    1.3730    0.5533 H   0  0  0  0  0  0  0  0  0  0  0  0
    6.6215    0.6434    1.0146 H   0  0  0  0  0  0  0  0  0  0  0  0
    6.9369    2.2529    1.6515 H   0  0  0  0  0  0  0  0  0  0  0  0
    9.7863    2.5657   -2.0493 H   0  0  0  0  0  0  0  0  0  0  0  0
   11.6356    3.4232   -2.5496 H   0  0  0  0  0  0  0  0  0  0  0  0
    1.7314    3.1909    1.6804 H   0  0  0  0  0  0  0  0  0  0  0  0
   -0.6503    3.7369    1.9589 H   0  0  0  0  0  0  0  0  0  0  0  0
  1  2  1  0  0  0  0
  1 24  1  0  0  0  0
  1 25  1  0  0  0  0
  2  3  2  0  0  0  0
  2  4  1  0  0  0  0
  4  5  1  0  0  0  0
  4 23  2  0  0  0  0
  5  6  2  0  0  0  0
  5 26  1  0  0  0  0
  6  7  1  0  0  0  0
  6 27  1  0  0  0  0
  7  8  1  0  0  0  0
  7 22  2  0  0  0  0
  8  9  1  0  0  0  0
  8 28  1  0  0  0  0
  9 10  2  0  0  0  0
  9 11  1  0  0  0  0
 11 12  1  0  0  0  0
 11 29  1  0  0  0  0
 11 30  1  0  0  0  0
 12 13  1  0  0  0  0
 12 17  1  0  0  0  0
 13 14  1  0  0  0  0
 13 31  1  0  0  0  0
 13 32  1  0  0  0  0
 14 15  1  0  0  0  0
 14 33  1  0  0  0  0
 14 34  1  0  0  0  0
 15 16  1  0  0  0  0
 15 18  1  0  0  0  0
 15 35  1  0  0  0  0
 16 17  1  0  0  0  0
 16 36  1  0  0  0  0
 16 37  1  0  0  0  0
 17 38  1  0  0  0  0
 17 39  1  0  0  0  0
 18 19  1  0  0  0  0
 18 40  1  0  0  0  0
 19 20  1  0  0  0  0
 19 21  2  0  0  0  0
 20 41  1  0  0  0  0
 22 23  1  0  0  0  0
 22 42  1  0  0  0  0
 23 43  1  0  0  0  0
M  END
> <Energy FFXML>
-98.18393644983804

> <SMILES QCArchive>
[H]c1c(c(c(c(c1C(=O)N([H])[H])[H])[H])N([H])C(=O)C([H])([H])N2C(C(C(C(C2([H])[H])([H])[H])([H])N([H])C(=O)O[H])([H])[H])([H])[H])[H]

> <Energy QCArchive>
-692657.1078598866

> <Record QCArchive>
36954837

> <final_energy>
-98.18393644983804

$$$$
