BRI-00505-05
  -OEChem-11282313333D

 34 36  0     0  0  0  0  0  0999 V2000
    4.6970    3.5776    0.4475 C   0  0  0  0  0  0  0  0  0  0  0  0
    3.2683    3.9126    0.2467 N   0  0  0  0  0  0  0  0  0  0  0  0
    2.7715    5.1936    0.1124 C   0  0  0  0  0  0  0  0  0  0  0  0
    1.4629    5.1746   -0.0320 N   0  0  0  0  0  0  0  0  0  0  0  0
    1.1117    3.8166    0.0234 C   0  0  0  0  0  0  0  0  0  0  0  0
   -0.3408    3.4068   -0.0399 C   0  0  0  0  0  0  0  0  0  0  0  0
    2.2219    3.0192    0.1804 C   0  0  0  0  0  0  0  0  0  0  0  0
    2.3088    1.5380    0.2614 C   0  0  0  0  0  0  0  0  0  0  0  0
    1.4145    0.6508   -0.2295 C   0  0  0  0  0  0  0  0  0  0  0  0
    1.9396   -0.5725    0.0672 N   0  0  0  0  0  0  0  0  0  0  0  0
    3.1458   -0.4384    0.7167 N   0  0  0  0  0  0  0  0  0  0  0  0
    3.3813    0.8429    0.8377 N   0  0  0  0  0  0  0  0  0  0  0  0
    1.3473   -1.8216   -0.2333 C   0  0  0  0  0  0  0  0  0  0  0  0
    0.0742   -1.9063   -0.8496 C   0  0  0  0  0  0  0  0  0  0  0  0
   -0.4919   -3.1605   -1.1456 C   0  0  0  0  0  0  0  0  0  0  0  0
    0.1981   -4.3431   -0.8244 C   0  0  0  0  0  0  0  0  0  0  0  0
    1.4644   -4.2848   -0.1963 C   0  0  0  0  0  0  0  0  0  0  0  0
    2.0358   -3.0185    0.0852 C   0  0  0  0  0  0  0  0  0  0  0  0
    2.1850   -5.5482    0.1449 C   0  0  0  0  0  0  0  0  0  0  0  0
    3.2051   -5.5209    1.0314 O   0  0  0  0  0  0  0  0  0  0  0  0
    1.8115   -6.6008   -0.3480 O   0  0  0  0  0  0  0  0  0  0  0  0
    4.8541    3.1697    1.4501 H   0  0  0  0  0  0  0  0  0  0  0  0
    5.3195    4.4699    0.3377 H   0  0  0  0  0  0  0  0  0  0  0  0
    5.0242    2.8463   -0.2972 H   0  0  0  0  0  0  0  0  0  0  0  0
    3.3767    6.0979    0.1221 H   0  0  0  0  0  0  0  0  0  0  0  0
   -0.9481    4.1287    0.5124 H   0  0  0  0  0  0  0  0  0  0  0  0
   -0.4992    2.4293    0.4169 H   0  0  0  0  0  0  0  0  0  0  0  0
   -0.6814    3.3917   -1.0780 H   0  0  0  0  0  0  0  0  0  0  0  0
    0.5019    0.8770   -0.7651 H   0  0  0  0  0  0  0  0  0  0  0  0
   -0.4954   -1.0188   -1.1113 H   0  0  0  0  0  0  0  0  0  0  0  0
   -1.4680   -3.2200   -1.6249 H   0  0  0  0  0  0  0  0  0  0  0  0
   -0.2521   -5.3083   -1.0600 H   0  0  0  0  0  0  0  0  0  0  0  0
    3.0251   -2.9442    0.5307 H   0  0  0  0  0  0  0  0  0  0  0  0
    3.2970   -4.6513    1.4313 H   0  0  0  0  0  0  0  0  0  0  0  0
  1  2  1  0  0  0  0
  1 22  1  0  0  0  0
  1 23  1  0  0  0  0
  1 24  1  0  0  0  0
  2  3  1  0  0  0  0
  2  7  1  0  0  0  0
  3  4  2  0  0  0  0
  3 25  1  0  0  0  0
  4  5  1  0  0  0  0
  5  6  1  0  0  0  0
  5  7  2  0  0  0  0
  6 26  1  0  0  0  0
  6 27  1  0  0  0  0
  6 28  1  0  0  0  0
  7  8  1  0  0  0  0
  8  9  2  0  0  0  0
  8 12  1  0  0  0  0
  9 10  1  0  0  0  0
  9 29  1  0  0  0  0
 10 11  1  0  0  0  0
 10 13  1  0  0  0  0
 11 12  2  0  0  0  0
 13 14  1  0  0  0  0
 13 18  2  0  0  0  0
 14 15  2  0  0  0  0
 14 30  1  0  0  0  0
 15 16  1  0  0  0  0
 15 31  1  0  0  0  0
 16 17  2  0  0  0  0
 16 32  1  0  0  0  0
 17 18  1  0  0  0  0
 17 19  1  0  0  0  0
 18 33  1  0  0  0  0
 19 20  1  0  0  0  0
 19 21  2  0  0  0  0
 20 34  1  0  0  0  0
M  END
> <Energy FFXML>
-5.294017948506399

> <SMILES QCArchive>
[H]c1c(c(c(c(c1[H])N2C(=C(N=N2)C3=C(N=C(N3C([H])([H])[H])[H])C([H])([H])[H])[H])[H])C(=O)O[H])[H]

> <Energy QCArchive>
-605972.0359006742

> <Record QCArchive>
36954935

> <final_energy>
-5.294017948506399

$$$$
