BRI-01347-04
  -OEChem-11282313333D

 46 46  0     1  0  0  0  0  0999 V2000
   -9.5059   -1.0397    9.2936 C   0  0  0  0  0  0  0  0  0  0  0  0
   -9.5421    0.2292    8.4214 C   0  0  0  0  0  0  0  0  0  0  0  0
   -8.2959    1.1077    8.6865 C   0  0  0  0  0  0  0  0  0  0  0  0
   -8.3469    2.4234    7.8715 C   0  0  0  0  0  0  0  0  0  0  0  0
   -8.4133    2.1661    6.4372 O   0  0  0  0  0  0  0  0  0  0  0  0
   -7.2254    1.8735    5.8208 C   0  0  0  0  0  0  0  0  0  0  0  0
   -6.1516    1.8486    6.4153 O   0  0  0  0  0  0  0  0  0  0  0  0
   -7.3395    1.6195    4.4784 O   0  0  0  0  0  0  0  0  0  0  0  0
   -6.1026    1.3069    3.7761 C   0  0  0  0  0  0  0  0  0  0  0  0
   -5.3517    2.6060    3.3940 C   0  0  0  0  0  0  0  0  0  0  0  0
   -4.1170    2.3145    2.4956 C   0  0  0  0  0  0  0  0  0  0  0  0
   -4.3641    2.6554    0.9989 C   0  0  2  0  0  0  0  0  0  0  0  0
   -5.3950    1.7029    0.3629 C   0  0  0  0  0  0  0  0  0  0  0  0
   -3.1190    2.4815    0.2631 O   0  0  0  0  0  0  0  0  0  0  0  0
   -2.2949    3.5825    0.1975 C   0  0  0  0  0  0  0  0  0  0  0  0
   -2.5232    4.6476    0.7625 O   0  0  0  0  0  0  0  0  0  0  0  0
   -1.0277    3.4559   -0.5850 C   0  0  0  0  0  0  0  0  0  0  0  0
   -0.7137    2.2407   -1.2423 C   0  0  0  0  0  0  0  0  0  0  0  0
    0.4808    2.1199   -1.9806 C   0  0  0  0  0  0  0  0  0  0  0  0
    1.3682    3.2068   -2.0685 C   0  0  0  0  0  0  0  0  0  0  0  0
    2.8465    3.0522   -2.9842 Cl  0  0  0  0  0  0  0  0  0  0  0  0
    1.0676    4.4175   -1.4205 C   0  0  0  0  0  0  0  0  0  0  0  0
   -0.1250    4.5452   -0.6807 C   0  0  0  0  0  0  0  0  0  0  0  0
   -8.6124   -1.6302    9.0709 H   0  0  0  0  0  0  0  0  0  0  0  0
   -9.4984   -0.7745   10.3547 H   0  0  0  0  0  0  0  0  0  0  0  0
  -10.3872   -1.6564    9.0962 H   0  0  0  0  0  0  0  0  0  0  0  0
   -9.5777   -0.0578    7.3660 H   0  0  0  0  0  0  0  0  0  0  0  0
  -10.4506    0.7976    8.6424 H   0  0  0  0  0  0  0  0  0  0  0  0
   -8.2404    1.3514    9.7513 H   0  0  0  0  0  0  0  0  0  0  0  0
   -7.3887    0.5505    8.4355 H   0  0  0  0  0  0  0  0  0  0  0  0
   -7.4895    3.0571    8.1228 H   0  0  0  0  0  0  0  0  0  0  0  0
   -9.2368    2.9869    8.1666 H   0  0  0  0  0  0  0  0  0  0  0  0
   -6.3534    0.7525    2.8685 H   0  0  0  0  0  0  0  0  0  0  0  0
   -5.4571    0.6494    4.3687 H   0  0  0  0  0  0  0  0  0  0  0  0
   -6.0362    3.2946    2.8900 H   0  0  0  0  0  0  0  0  0  0  0  0
   -5.0156    3.1055    4.3075 H   0  0  0  0  0  0  0  0  0  0  0  0
   -3.8083    1.2694    2.5945 H   0  0  0  0  0  0  0  0  0  0  0  0
   -3.2793    2.9187    2.8565 H   0  0  0  0  0  0  0  0  0  0  0  0
   -4.7423    3.6801    0.9041 H   0  0  0  0  0  0  0  0  0  0  0  0
   -6.3874    1.8696    0.7892 H   0  0  0  0  0  0  0  0  0  0  0  0
   -5.4565    1.8844   -0.7137 H   0  0  0  0  0  0  0  0  0  0  0  0
   -5.1058    0.6607    0.5241 H   0  0  0  0  0  0  0  0  0  0  0  0
   -1.3900    1.3886   -1.1845 H   0  0  0  0  0  0  0  0  0  0  0  0
    0.7240    1.1879   -2.4860 H   0  0  0  0  0  0  0  0  0  0  0  0
    1.7606    5.2527   -1.4942 H   0  0  0  0  0  0  0  0  0  0  0  0
   -0.3461    5.4893   -0.1827 H   0  0  0  0  0  0  0  0  0  0  0  0
  1  2  1  0  0  0  0
  1 24  1  0  0  0  0
  1 25  1  0  0  0  0
  1 26  1  0  0  0  0
  2  3  1  0  0  0  0
  2 27  1  0  0  0  0
  2 28  1  0  0  0  0
  3  4  1  0  0  0  0
  3 29  1  0  0  0  0
  3 30  1  0  0  0  0
  4  5  1  0  0  0  0
  4 31  1  0  0  0  0
  4 32  1  0  0  0  0
  5  6  1  0  0  0  0
  6  7  2  0  0  0  0
  6  8  1  0  0  0  0
  8  9  1  0  0  0  0
  9 10  1  0  0  0  0
  9 33  1  0  0  0  0
  9 34  1  0  0  0  0
 10 11  1  0  0  0  0
 10 35  1  0  0  0  0
 10 36  1  0  0  0  0
 11 12  1  0  0  0  0
 11 37  1  0  0  0  0
 11 38  1  0  0  0  0
 12 13  1  0  0  0  0
 12 14  1  0  0  0  0
 12 39  1  0  0  0  0
 13 40  1  0  0  0  0
 13 41  1  0  0  0  0
 13 42  1  0  0  0  0
 14 15  1  0  0  0  0
 15 16  2  0  0  0  0
 15 17  1  0  0  0  0
 17 18  1  0  0  0  0
 17 23  2  0  0  0  0
 18 19  2  0  0  0  0
 18 43  1  0  0  0  0
 19 20  1  0  0  0  0
 19 44  1  0  0  0  0
 20 21  1  0  0  0  0
 20 22  2  0  0  0  0
 22 23  1  0  0  0  0
 22 45  1  0  0  0  0
 23 46  1  0  0  0  0
M  END
> <Energy FFXML>
-18.58165992577004

> <SMILES QCArchive>
[H]c1c(c(c(c(c1C(=O)O[C@@]([H])(C([H])([H])[H])C([H])([H])C([H])([H])C([H])([H])OC(=O)OC([H])([H])C([H])([H])C([H])([H])C([H])([H])[H])[H])[H])Cl)[H]

> <Energy QCArchive>
-940137.9242020375

> <Record QCArchive>
36954924

> <final_energy>
-18.58165992577004

$$$$
