BRI-01347-00
  -OEChem-11282313333D

 46 46  0     1  0  0  0  0  0999 V2000
   -6.4427    1.2374    8.8631 C   0  0  0  0  0  0  0  0  0  0  0  0
   -7.7310    0.4185    9.0954 C   0  0  0  0  0  0  0  0  0  0  0  0
   -8.1432   -0.3967    7.8395 C   0  0  0  0  0  0  0  0  0  0  0  0
   -9.0708    0.3996    6.8833 C   0  0  0  0  0  0  0  0  0  0  0  0
   -8.4141    1.5747    6.3264 O   0  0  0  0  0  0  0  0  0  0  0  0
   -7.5471    1.3472    5.2901 C   0  0  0  0  0  0  0  0  0  0  0  0
   -7.3773    0.2374    4.7930 O   0  0  0  0  0  0  0  0  0  0  0  0
   -6.9123    2.4737    4.8362 O   0  0  0  0  0  0  0  0  0  0  0  0
   -5.9506    2.2795    3.7591 C   0  0  0  0  0  0  0  0  0  0  0  0
   -6.6738    2.2424    2.3890 C   0  0  0  0  0  0  0  0  0  0  0  0
   -5.6656    2.1032    1.2199 C   0  0  0  0  0  0  0  0  0  0  0  0
   -4.9911    3.4592    0.8608 C   0  0  2  0  0  0  0  0  0  0  0  0
   -5.8431    4.2335   -0.1628 C   0  0  0  0  0  0  0  0  0  0  0  0
   -3.6928    3.2143    0.2503 O   0  0  0  0  0  0  0  0  0  0  0  0
   -2.6422    3.0474    1.1245 C   0  0  0  0  0  0  0  0  0  0  0  0
   -2.7644    3.0241    2.3458 O   0  0  0  0  0  0  0  0  0  0  0  0
   -1.2800    2.8419    0.5454 C   0  0  0  0  0  0  0  0  0  0  0  0
   -0.1574    2.6466    1.3893 C   0  0  0  0  0  0  0  0  0  0  0  0
    1.1237    2.4536    0.8349 C   0  0  0  0  0  0  0  0  0  0  0  0
    1.2947    2.4539   -0.5605 C   0  0  0  0  0  0  0  0  0  0  0  0
    2.8833    2.2145   -1.2437 Cl  0  0  0  0  0  0  0  0  0  0  0  0
    0.1888    2.6464   -1.4070 C   0  0  0  0  0  0  0  0  0  0  0  0
   -1.0953    2.8400   -0.8592 C   0  0  0  0  0  0  0  0  0  0  0  0
   -6.1289    1.7128    9.7965 H   0  0  0  0  0  0  0  0  0  0  0  0
   -6.6082    2.0230    8.1220 H   0  0  0  0  0  0  0  0  0  0  0  0
   -5.6325    0.5893    8.5170 H   0  0  0  0  0  0  0  0  0  0  0  0
   -7.5569   -0.2746    9.9238 H   0  0  0  0  0  0  0  0  0  0  0  0
   -8.5445    1.0835    9.4007 H   0  0  0  0  0  0  0  0  0  0  0  0
   -8.6786   -1.2927    8.1659 H   0  0  0  0  0  0  0  0  0  0  0  0
   -7.2558   -0.7466    7.3040 H   0  0  0  0  0  0  0  0  0  0  0  0
   -9.9550    0.7246    7.4390 H   0  0  0  0  0  0  0  0  0  0  0  0
   -9.4412   -0.2568    6.0885 H   0  0  0  0  0  0  0  0  0  0  0  0
   -5.3564    1.3710    3.9077 H   0  0  0  0  0  0  0  0  0  0  0  0
   -5.2432    3.1129    3.7748 H   0  0  0  0  0  0  0  0  0  0  0  0
   -7.3584    1.3896    2.3678 H   0  0  0  0  0  0  0  0  0  0  0  0
   -7.2777    3.1455    2.2647 H   0  0  0  0  0  0  0  0  0  0  0  0
   -4.9039    1.3651    1.4889 H   0  0  0  0  0  0  0  0  0  0  0  0
   -6.1810    1.7063    0.3404 H   0  0  0  0  0  0  0  0  0  0  0  0
   -4.8877    4.0848    1.7543 H   0  0  0  0  0  0  0  0  0  0  0  0
   -5.3656    5.1877   -0.4015 H   0  0  0  0  0  0  0  0  0  0  0  0
   -5.9501    3.6574   -1.0862 H   0  0  0  0  0  0  0  0  0  0  0  0
   -6.8376    4.4382    0.2421 H   0  0  0  0  0  0  0  0  0  0  0  0
   -0.2763    2.6438    2.4728 H   0  0  0  0  0  0  0  0  0  0  0  0
    1.9855    2.3034    1.4815 H   0  0  0  0  0  0  0  0  0  0  0  0
    0.3331    2.6443   -2.4852 H   0  0  0  0  0  0  0  0  0  0  0  0
   -1.9413    2.9873   -1.5296 H   0  0  0  0  0  0  0  0  0  0  0  0
  1  2  1  0  0  0  0
  1 24  1  0  0  0  0
  1 25  1  0  0  0  0
  1 26  1  0  0  0  0
  2  3  1  0  0  0  0
  2 27  1  0  0  0  0
  2 28  1  0  0  0  0
  3  4  1  0  0  0  0
  3 29  1  0  0  0  0
  3 30  1  0  0  0  0
  4  5  1  0  0  0  0
  4 31  1  0  0  0  0
  4 32  1  0  0  0  0
  5  6  1  0  0  0  0
  6  7  2  0  0  0  0
  6  8  1  0  0  0  0
  8  9  1  0  0  0  0
  9 10  1  0  0  0  0
  9 33  1  0  0  0  0
  9 34  1  0  0  0  0
 10 11  1  0  0  0  0
 10 35  1  0  0  0  0
 10 36  1  0  0  0  0
 11 12  1  0  0  0  0
 11 37  1  0  0  0  0
 11 38  1  0  0  0  0
 12 13  1  0  0  0  0
 12 14  1  0  0  0  0
 12 39  1  0  0  0  0
 13 40  1  0  0  0  0
 13 41  1  0  0  0  0
 13 42  1  0  0  0  0
 14 15  1  0  0  0  0
 15 16  2  0  0  0  0
 15 17  1  0  0  0  0
 17 18  1  0  0  0  0
 17 23  2  0  0  0  0
 18 19  2  0  0  0  0
 18 43  1  0  0  0  0
 19 20  1  0  0  0  0
 19 44  1  0  0  0  0
 20 21  1  0  0  0  0
 20 22  2  0  0  0  0
 22 23  1  0  0  0  0
 22 45  1  0  0  0  0
 23 46  1  0  0  0  0
M  END
> <Energy FFXML>
-19.787270936346786

> <SMILES QCArchive>
[H]c1c(c(c(c(c1C(=O)O[C@@]([H])(C([H])([H])[H])C([H])([H])C([H])([H])C([H])([H])OC(=O)OC([H])([H])C([H])([H])C([H])([H])C([H])([H])[H])[H])[H])Cl)[H]

> <Energy QCArchive>
-940138.486152666

> <Record QCArchive>
36954920

> <final_energy>
-19.787270936346786

$$$$
