BRI-00538-00
  -OEChem-11282313333D

 40 41  0     1  0  0  0  0  0999 V2000
   -1.0979    6.2383   -3.1433 C   0  0  0  0  0  0  0  0  0  0  0  0
    0.0177    6.6011   -2.2293 N   0  0  1  0  0  0  0  0  0  0  0  0
   -0.4169    7.2944   -0.9721 C   0  0  0  0  0  0  0  0  0  0  0  0
    0.6211    8.3353   -0.4865 C   0  0  0  0  0  0  0  0  0  0  0  0
    0.5992    9.5892   -1.3490 C   0  0  0  0  0  0  0  0  0  0  0  0
   -0.0416   10.7596   -0.8827 C   0  0  0  0  0  0  0  0  0  0  0  0
   -0.0696   11.9178   -1.6868 C   0  0  0  0  0  0  0  0  0  0  0  0
    0.5351   11.9010   -2.9538 C   0  0  0  0  0  0  0  0  0  0  0  0
    0.5148   13.0025   -3.7411 O   0  0  0  0  0  0  0  0  0  0  0  0
    1.1669   10.7351   -3.4273 C   0  0  0  0  0  0  0  0  0  0  0  0
    1.7397   10.7255   -4.6638 O   0  0  0  0  0  0  0  0  0  0  0  0
    1.2007    9.5793   -2.6266 C   0  0  0  0  0  0  0  0  0  0  0  0
    1.0820    5.5537   -2.0758 C   0  0  0  0  0  0  0  0  0  0  0  0
    0.6301    4.3560   -1.2460 C   0  0  0  0  0  0  0  0  0  0  0  0
    0.9379    4.2895    0.1281 C   0  0  0  0  0  0  0  0  0  0  0  0
    0.5199    3.1870    0.8985 C   0  0  0  0  0  0  0  0  0  0  0  0
   -0.2146    2.1274    0.3049 C   0  0  0  0  0  0  0  0  0  0  0  0
   -0.5168    2.2036   -1.0799 C   0  0  0  0  0  0  0  0  0  0  0  0
   -0.0965    3.3082   -1.8460 C   0  0  0  0  0  0  0  0  0  0  0  0
   -0.6383    1.0149    1.0800 N   0  3  0  0  0  0  0  0  0  0  0  0
   -1.2800    0.1001    0.5357 O   0  5  0  0  0  0  0  0  0  0  0  0
   -0.3615    0.9732    2.2909 O   0  0  0  0  0  0  0  0  0  0  0  0
   -1.6543    7.1343   -3.4344 H   0  0  0  0  0  0  0  0  0  0  0  0
   -1.7892    5.5462   -2.6533 H   0  0  0  0  0  0  0  0  0  0  0  0
   -0.7146    5.7693   -4.0542 H   0  0  0  0  0  0  0  0  0  0  0  0
   -0.5956    6.5622   -0.1806 H   0  0  0  0  0  0  0  0  0  0  0  0
   -1.3731    7.8023   -1.1353 H   0  0  0  0  0  0  0  0  0  0  0  0
    0.3954    8.6030    0.5493 H   0  0  0  0  0  0  0  0  0  0  0  0
    1.6238    7.9025   -0.4842 H   0  0  0  0  0  0  0  0  0  0  0  0
   -0.5159   10.7765    0.0962 H   0  0  0  0  0  0  0  0  0  0  0  0
   -0.5553   12.8278   -1.3439 H   0  0  0  0  0  0  0  0  0  0  0  0
    0.9726   12.8160   -4.5788 H   0  0  0  0  0  0  0  0  0  0  0  0
    2.1097    9.8542   -4.8764 H   0  0  0  0  0  0  0  0  0  0  0  0
    1.6744    8.6690   -2.9853 H   0  0  0  0  0  0  0  0  0  0  0  0
    1.9747    5.9943   -1.6239 H   0  0  0  0  0  0  0  0  0  0  0  0
    1.3966    5.2071   -3.0651 H   0  0  0  0  0  0  0  0  0  0  0  0
    1.4973    5.0941    0.6005 H   0  0  0  0  0  0  0  0  0  0  0  0
    0.7717    3.1661    1.9580 H   0  0  0  0  0  0  0  0  0  0  0  0
   -1.0783    1.4111   -1.5729 H   0  0  0  0  0  0  0  0  0  0  0  0
   -0.3372    3.3505   -2.9058 H   0  0  0  0  0  0  0  0  0  0  0  0
  1  2  1  0  0  0  0
  1 23  1  0  0  0  0
  1 24  1  0  0  0  0
  1 25  1  0  0  0  0
  2  3  1  0  0  0  0
  2 13  1  0  0  0  0
  3  4  1  0  0  0  0
  3 26  1  0  0  0  0
  3 27  1  0  0  0  0
  4  5  1  0  0  0  0
  4 28  1  0  0  0  0
  4 29  1  0  0  0  0
  5  6  1  0  0  0  0
  5 12  2  0  0  0  0
  6  7  2  0  0  0  0
  6 30  1  0  0  0  0
  7  8  1  0  0  0  0
  7 31  1  0  0  0  0
  8  9  1  0  0  0  0
  8 10  2  0  0  0  0
  9 32  1  0  0  0  0
 10 11  1  0  0  0  0
 10 12  1  0  0  0  0
 11 33  1  0  0  0  0
 12 34  1  0  0  0  0
 13 14  1  0  0  0  0
 13 35  1  0  0  0  0
 13 36  1  0  0  0  0
 14 15  1  0  0  0  0
 14 19  2  0  0  0  0
 15 16  2  0  0  0  0
 15 37  1  0  0  0  0
 16 17  1  0  0  0  0
 16 38  1  0  0  0  0
 17 18  2  0  0  0  0
 17 20  1  0  0  0  0
 18 19  1  0  0  0  0
 18 39  1  0  0  0  0
 19 40  1  0  0  0  0
 20 21  1  0  0  0  0
 20 22  2  0  0  0  0
M  CHG  2  20   1  21  -1
M  END
> <Energy FFXML>
16.070677701110235

> <SMILES QCArchive>
[H]c1c(c(c(c(c1C([H])([H])N(C([H])([H])[H])C([H])([H])C([H])([H])c2c(c(c(c(c2[H])O[H])O[H])[H])[H])[H])[H])[N+](=O)[O-])[H]

> <Energy QCArchive>
-646981.2820422128

> <Record QCArchive>
36954877

> <final_energy>
16.070677701110235

$$$$
