BRI-00386-03
  -OEChem-11282313333D

 40 42  0     1  0  0  0  0  0999 V2000
    2.5186   -0.3122   -4.7138 C   0  0  0  0  0  0  0  0  0  0  0  0
    1.5516   -1.0046   -3.8834 O   0  0  0  0  0  0  0  0  0  0  0  0
    2.0854   -1.4683   -2.6789 C   0  0  0  0  0  0  0  0  0  0  0  0
    2.3845   -2.8382   -2.4870 C   0  0  0  0  0  0  0  0  0  0  0  0
    2.9218   -3.2295   -1.2988 N   0  0  0  0  0  0  0  0  0  0  0  0
    3.1741   -2.3436   -0.3247 C   0  0  0  0  0  0  0  0  0  0  0  0
    2.8993   -1.0427   -0.4660 N   0  0  0  0  0  0  0  0  0  0  0  0
    2.3429   -0.5945   -1.5949 C   0  0  0  0  0  0  0  0  0  0  0  0
    2.0398    0.7763   -1.6543 N   0  0  2  0  0  0  0  0  0  0  0  0
    2.7758    1.7312   -0.7852 C   0  0  0  0  0  0  0  0  0  0  0  0
    1.9857    1.9427    0.5176 C   0  0  0  0  0  0  0  0  0  0  0  0
    0.5523    2.3554    0.2188 C   0  0  0  0  0  0  0  0  0  0  0  0
   -0.1754    3.0750    1.1869 C   0  0  0  0  0  0  0  0  0  0  0  0
   -1.5135    3.4435    0.9455 C   0  0  0  0  0  0  0  0  0  0  0  0
   -2.1459    3.0857   -0.2737 C   0  0  0  0  0  0  0  0  0  0  0  0
   -3.4622    3.3991   -0.6198 O   0  0  0  0  0  0  0  0  0  0  0  0
   -4.2724    4.1569    0.3261 C   0  0  0  0  0  0  0  0  0  0  0  0
   -4.4417    3.4746    1.4937 F   0  0  0  0  0  0  0  0  0  0  0  0
   -3.7355    5.3866    0.5656 F   0  0  0  0  0  0  0  0  0  0  0  0
   -5.4976    4.3389   -0.2322 F   0  0  0  0  0  0  0  0  0  0  0  0
   -1.4149    2.3546   -1.2284 C   0  0  0  0  0  0  0  0  0  0  0  0
   -0.0747    1.9787   -0.9954 C   0  0  0  0  0  0  0  0  0  0  0  0
    0.6676    1.1938   -2.0787 C   0  0  0  0  0  0  0  0  0  0  0  0
    2.1406   -3.8783   -3.5751 C   0  0  0  0  0  0  0  0  0  0  0  0
    1.9220   -3.5546   -4.8696 O   0  0  0  0  0  0  0  0  0  0  0  0
    2.1862   -5.0756   -3.3247 O   0  0  0  0  0  0  0  0  0  0  0  0
    3.3662   -0.9653   -4.9418 H   0  0  0  0  0  0  0  0  0  0  0  0
    2.8898    0.5891   -4.2180 H   0  0  0  0  0  0  0  0  0  0  0  0
    2.0515   -0.0167   -5.6569 H   0  0  0  0  0  0  0  0  0  0  0  0
    3.6145   -2.6946    0.6070 H   0  0  0  0  0  0  0  0  0  0  0  0
    3.7865    1.3720   -0.5645 H   0  0  0  0  0  0  0  0  0  0  0  0
    2.8916    2.6870   -1.3061 H   0  0  0  0  0  0  0  0  0  0  0  0
    1.9811    1.0158    1.0975 H   0  0  0  0  0  0  0  0  0  0  0  0
    2.4810    2.7084    1.1202 H   0  0  0  0  0  0  0  0  0  0  0  0
    0.2942    3.3482    2.1300 H   0  0  0  0  0  0  0  0  0  0  0  0
   -2.0189    4.0001    1.7294 H   0  0  0  0  0  0  0  0  0  0  0  0
   -1.9095    2.0807   -2.1575 H   0  0  0  0  0  0  0  0  0  0  0  0
    0.0602    0.3206   -2.3364 H   0  0  0  0  0  0  0  0  0  0  0  0
    0.7392    1.8058   -2.9829 H   0  0  0  0  0  0  0  0  0  0  0  0
    1.7967   -4.3658   -5.3807 H   0  0  0  0  0  0  0  0  0  0  0  0
  1  2  1  0  0  0  0
  1 27  1  0  0  0  0
  1 28  1  0  0  0  0
  1 29  1  0  0  0  0
  2  3  1  0  0  0  0
  3  4  1  0  0  0  0
  3  8  2  0  0  0  0
  4  5  2  0  0  0  0
  4 24  1  0  0  0  0
  5  6  1  0  0  0  0
  6  7  2  0  0  0  0
  6 30  1  0  0  0  0
  7  8  1  0  0  0  0
  8  9  1  0  0  0  0
  9 10  1  0  0  0  0
  9 23  1  0  0  0  0
 10 11  1  0  0  0  0
 10 31  1  0  0  0  0
 10 32  1  0  0  0  0
 11 12  1  0  0  0  0
 11 33  1  0  0  0  0
 11 34  1  0  0  0  0
 12 13  1  0  0  0  0
 12 22  2  0  0  0  0
 13 14  2  0  0  0  0
 13 35  1  0  0  0  0
 14 15  1  0  0  0  0
 14 36  1  0  0  0  0
 15 16  1  0  0  0  0
 15 21  2  0  0  0  0
 16 17  1  0  0  0  0
 17 18  1  0  0  0  0
 17 19  1  0  0  0  0
 17 20  1  0  0  0  0
 21 22  1  0  0  0  0
 21 37  1  0  0  0  0
 22 23  1  0  0  0  0
 23 38  1  0  0  0  0
 23 39  1  0  0  0  0
 24 25  1  0  0  0  0
 24 26  2  0  0  0  0
 25 40  1  0  0  0  0
M  END
> <Energy FFXML>
-26.589119362716723

> <SMILES QCArchive>
[H]c1c(c(c(c2c1C(C(N(C2([H])[H])c3c(c(nc(n3)[H])C(=O)O[H])OC([H])([H])[H])([H])[H])([H])[H])[H])OC(F)(F)F)[H]

> <Energy QCArchive>
-867907.2462231375

> <Record QCArchive>
36954897

> <final_energy>
-26.589119362716723

$$$$
