BRI-01068-07
  -OEChem-11282313333D

 42 43  0     1  0  0  0  0  0999 V2000
    2.1758   -2.0457   -6.3066 C   0  0  0  0  0  0  0  0  0  0  0  0
    2.5110   -0.5538   -6.5819 C   0  0  1  0  0  0  0  0  0  0  0  0
    2.9791   -0.3758   -8.0719 C   0  0  0  0  0  0  0  0  0  0  0  0
    4.3466   -1.0038   -8.3827 C   0  0  0  0  0  0  0  0  0  0  0  0
    4.6692   -1.2637   -9.6579 O   0  0  0  0  0  0  0  0  0  0  0  0
    5.1624   -1.2063   -7.4977 O   0  0  0  0  0  0  0  0  0  0  0  0
    1.2607    0.3274   -6.2655 C   0  0  0  0  0  0  0  0  0  0  0  0
    0.5380    0.6817   -7.1913 O   0  0  0  0  0  0  0  0  0  0  0  0
    0.8888    0.7015   -4.8588 C   0  0  0  0  0  0  0  0  0  0  0  0
    1.6732    0.2905   -3.7499 C   0  0  0  0  0  0  0  0  0  0  0  0
    1.3041    0.6544   -2.4396 C   0  0  0  0  0  0  0  0  0  0  0  0
    0.1519    1.4302   -2.2202 C   0  0  0  0  0  0  0  0  0  0  0  0
   -0.2405    1.8111   -0.9413 N   0  0  0  0  0  0  0  0  0  0  0  0
    0.0162    0.9648    0.2362 C   0  0  0  0  0  0  0  0  0  0  0  0
   -0.8226    1.4944    1.3814 C   0  0  0  0  0  0  0  0  0  0  0  0
   -0.4044    2.6421    2.0882 C   0  0  0  0  0  0  0  0  0  0  0  0
   -1.1923    3.1498    3.1397 C   0  0  0  0  0  0  0  0  0  0  0  0
   -2.4033    2.5170    3.4822 C   0  0  0  0  0  0  0  0  0  0  0  0
   -2.8297    1.3790    2.7697 C   0  0  0  0  0  0  0  0  0  0  0  0
   -2.0434    0.8696    1.7175 C   0  0  0  0  0  0  0  0  0  0  0  0
   -0.6349    1.8497   -3.3147 C   0  0  0  0  0  0  0  0  0  0  0  0
   -1.7611    2.5984   -3.1090 O   0  0  0  0  0  0  0  0  0  0  0  0
   -0.2693    1.4870   -4.6241 C   0  0  0  0  0  0  0  0  0  0  0  0
    1.3836   -2.3898   -6.9787 H   0  0  0  0  0  0  0  0  0  0  0  0
    3.0572   -2.6755   -6.4558 H   0  0  0  0  0  0  0  0  0  0  0  0
    1.8340   -2.1827   -5.2771 H   0  0  0  0  0  0  0  0  0  0  0  0
    3.3280   -0.2346   -5.9303 H   0  0  0  0  0  0  0  0  0  0  0  0
    2.2335   -0.8104   -8.7433 H   0  0  0  0  0  0  0  0  0  0  0  0
    3.0341    0.6891   -8.3124 H   0  0  0  0  0  0  0  0  0  0  0  0
    5.5656   -1.6240   -9.6963 H   0  0  0  0  0  0  0  0  0  0  0  0
    2.5729   -0.3088   -3.8688 H   0  0  0  0  0  0  0  0  0  0  0  0
    1.9239    0.3418   -1.6049 H   0  0  0  0  0  0  0  0  0  0  0  0
   -1.1370    2.3008   -0.9636 H   0  0  0  0  0  0  0  0  0  0  0  0
   -0.2556   -0.0746    0.0247 H   0  0  0  0  0  0  0  0  0  0  0  0
    1.0760    0.9990    0.5073 H   0  0  0  0  0  0  0  0  0  0  0  0
    0.5252    3.1393    1.8162 H   0  0  0  0  0  0  0  0  0  0  0  0
   -0.8665    4.0338    3.6843 H   0  0  0  0  0  0  0  0  0  0  0  0
   -3.0119    2.9107    4.2940 H   0  0  0  0  0  0  0  0  0  0  0  0
   -3.7688    0.8949    3.0305 H   0  0  0  0  0  0  0  0  0  0  0  0
   -2.3840   -0.0051    1.1665 H   0  0  0  0  0  0  0  0  0  0  0  0
   -2.1877    2.8432   -3.9453 H   0  0  0  0  0  0  0  0  0  0  0  0
   -0.8832    1.8122   -5.4620 H   0  0  0  0  0  0  0  0  0  0  0  0
  1  2  1  0  0  0  0
  1 24  1  0  0  0  0
  1 25  1  0  0  0  0
  1 26  1  0  0  0  0
  2  3  1  0  0  0  0
  2  7  1  0  0  0  0
  2 27  1  0  0  0  0
  3  4  1  0  0  0  0
  3 28  1  0  0  0  0
  3 29  1  0  0  0  0
  4  5  1  0  0  0  0
  4  6  2  0  0  0  0
  5 30  1  0  0  0  0
  7  8  2  0  0  0  0
  7  9  1  0  0  0  0
  9 10  1  0  0  0  0
  9 23  2  0  0  0  0
 10 11  2  0  0  0  0
 10 31  1  0  0  0  0
 11 12  1  0  0  0  0
 11 32  1  0  0  0  0
 12 13  1  0  0  0  0
 12 21  2  0  0  0  0
 13 14  1  0  0  0  0
 13 33  1  0  0  0  0
 14 15  1  0  0  0  0
 14 34  1  0  0  0  0
 14 35  1  0  0  0  0
 15 16  1  0  0  0  0
 15 20  2  0  0  0  0
 16 17  2  0  0  0  0
 16 36  1  0  0  0  0
 17 18  1  0  0  0  0
 17 37  1  0  0  0  0
 18 19  2  0  0  0  0
 18 38  1  0  0  0  0
 19 20  1  0  0  0  0
 19 39  1  0  0  0  0
 20 40  1  0  0  0  0
 21 22  1  0  0  0  0
 21 23  1  0  0  0  0
 22 41  1  0  0  0  0
 23 42  1  0  0  0  0
M  END
> <Energy FFXML>
-12.332869615704457

> <SMILES QCArchive>
[H]c1c(c(c(c(c1[H])[H])C([H])([H])N([H])c2c(c(c(c(c2O[H])[H])C(=O)[C@@]([H])(C([H])([H])[H])C([H])([H])C(=O)O[H])[H])[H])[H])[H]

> <Energy QCArchive>
-660914.5869099613

> <Record QCArchive>
36954845

> <final_energy>
-12.332869615704457

$$$$
